
This summary file was generated by HydroDyn v2.02.02a-gjh on 11-Aug-2020 at 18:02:15.




Volume Calculations(m^3)
------------------------
  Structure Volume     :    8.48233E+02
  Submerged Volume     :    5.65487E+02
  Marine Growth Volume :    0.00000E+00
  Ballasted Volume     :    0.00000E+00
              NOTE: Structure, Submerged and Marine Growth volumes are based on members not modelled with WAMIT
                    Ballasted volume is computed from all members which are marked as filled in the HydroDyn input file, regardless of PropWAMIT flag



Buoyancy loads summed about ( 0.0, 0.0, 0.0 )
---------------------------------------------
                                BuoyFxi               BuoyFyi               BuoyFzi               BuoyMxi               BuoyMyi               BuoyMzi 
                                  (N)                   (N)                   (N)                  (N-m)                 (N-m)                 (N-m)  
 External:                  0.000000E+00          0.000000E+00          0.000000E+00          0.000000E+00          0.000000E+00          0.000000E+00
 Internal:                  0.000000E+00          0.000000E+00          0.000000E+00          0.000000E+00          0.000000E+00          0.000000E+00
 Total   :                  0.000000E+00          0.000000E+00          0.000000E+00          0.000000E+00          0.000000E+00          0.000000E+00
              NOTE: External buoyancy is based on members not modelled with WAMIT
                    Internal buoyancy is computed from all members which are marked as filled in the HydroDyn input file, regardless of PropWAMIT flag
                    Total buoyancy does not include WAMIT-modelled buoyancy contribution



Weight loads about ( 0.0, 0.0, 0.0 )
------------------------------------
                                 MGFxi                 MGFyi                 MGFzi                 MGMxi                 MGMyi                 MGMzi  
                                  (N)                   (N)                   (N)                  (N-m)                 (N-m)                 (N-m)  
 Marine Growth:             0.000000E+00          0.000000E+00          0.000000E+00          0.000000E+00          0.000000E+00          0.000000E+00



Nodes


   i    JointIndx   JointOvrlp  InpMbrIndx     Nxi         Nyi         Nzi      InpMbrDist       R         dRdZ         t          tMG        MGDens    PropWAMIT   FilledFlag   FillDens   FillFSLoc       Cd          Ca          Cp         AxCa        AxCp        JAxCd       JAxCa       JAxCp    NConn  Connection List
  (-)      (-)         (-)         (-)         (m)         (m)         (m)          (-)         (m)         (-)        (m)         (m)       (kg/m^3)      (-)         (-)       (kg/m^3)       (-)         (-)         (-)         (-)         (-)         (-)         (-)         (-)         (-)      (-)                  
     1           1           0           1      0.0000      0.0000    -20.0001      0.0000   3.000E+00   0.000E+00   6.000E-02   0.000E+00   0.000E+00           F           F   0.000E+00   0.000E+00   1.000E+00   1.000E+00   1.000E+00   1.000E+00   1.000E+00   0.000E+00   0.000E+00   1.000E+00      1     1
     2           2           0           1      0.0000      0.0000     10.0000      1.0000   3.000E+00   0.000E+00   6.000E-02   0.000E+00   0.000E+00           F           F   0.000E+00   0.000E+00   1.000E+00   1.000E+00   1.000E+00   1.000E+00   1.000E+00   0.000E+00   0.000E+00   1.000E+00      1    61
     3           3           0           1      0.0000      0.0000    -20.0000      0.0000   3.000E+00   0.000E+00   6.000E-02   0.000E+00   0.000E+00           F           F   0.000E+00   0.000E+00   1.000E+00   1.000E+00   1.000E+00   1.000E+00   1.000E+00   0.000E+00   0.000E+00   0.000E+00      1     2
     4           4           0           1      0.0000      0.0000      0.0000      0.6667   3.000E+00   0.000E+00   6.000E-02   0.000E+00   0.000E+00           F           F   0.000E+00   0.000E+00   1.000E+00   1.000E+00   1.000E+00   1.000E+00   1.000E+00   0.000E+00   0.000E+00   0.000E+00      1    42
     5          -1           0           1      0.0000      0.0000    -19.5000      0.0167   3.000E+00   0.000E+00   6.000E-02   0.000E+00   0.000E+00           F           F   0.000E+00   0.000E+00   1.000E+00   1.000E+00   1.000E+00   1.000E+00   1.000E+00   0.000E+00   0.000E+00   0.000E+00      2     2     4
     6          -1           0           1      0.0000      0.0000    -19.0000      0.0333   3.000E+00   0.000E+00   6.000E-02   0.000E+00   0.000E+00           F           F   0.000E+00   0.000E+00   1.000E+00   1.000E+00   1.000E+00   1.000E+00   1.000E+00   0.000E+00   0.000E+00   0.000E+00      2     4     5
     7          -1           0           1      0.0000      0.0000    -18.5000      0.0500   3.000E+00   0.000E+00   6.000E-02   0.000E+00   0.000E+00           F           F   0.000E+00   0.000E+00   1.000E+00   1.000E+00   1.000E+00   1.000E+00   1.000E+00   0.000E+00   0.000E+00   0.000E+00      2     5     6
     8          -1           0           1      0.0000      0.0000    -18.0000      0.0667   3.000E+00   0.000E+00   6.000E-02   0.000E+00   0.000E+00           F           F   0.000E+00   0.000E+00   1.000E+00   1.000E+00   1.000E+00   1.000E+00   1.000E+00   0.000E+00   0.000E+00   0.000E+00      2     6     7
     9          -1           0           1      0.0000      0.0000    -17.5000      0.0833   3.000E+00   0.000E+00   6.000E-02   0.000E+00   0.000E+00           F           F   0.000E+00   0.000E+00   1.000E+00   1.000E+00   1.000E+00   1.000E+00   1.000E+00   0.000E+00   0.000E+00   0.000E+00      2     7     8
    10          -1           0           1      0.0000      0.0000    -17.0000      0.1000   3.000E+00   0.000E+00   6.000E-02   0.000E+00   0.000E+00           F           F   0.000E+00   0.000E+00   1.000E+00   1.000E+00   1.000E+00   1.000E+00   1.000E+00   0.000E+00   0.000E+00   0.000E+00      2     8     9
    11          -1           0           1      0.0000      0.0000    -16.5000      0.1167   3.000E+00   0.000E+00   6.000E-02   0.000E+00   0.000E+00           F           F   0.000E+00   0.000E+00   1.000E+00   1.000E+00   1.000E+00   1.000E+00   1.000E+00   0.000E+00   0.000E+00   0.000E+00      2     9    10
    12          -1           0           1      0.0000      0.0000    -16.0000      0.1333   3.000E+00   0.000E+00   6.000E-02   0.000E+00   0.000E+00           F           F   0.000E+00   0.000E+00   1.000E+00   1.000E+00   1.000E+00   1.000E+00   1.000E+00   0.000E+00   0.000E+00   0.000E+00      2    10    11
    13          -1           0           1      0.0000      0.0000    -15.5000      0.1500   3.000E+00   0.000E+00   6.000E-02   0.000E+00   0.000E+00           F           F   0.000E+00   0.000E+00   1.000E+00   1.000E+00   1.000E+00   1.000E+00   1.000E+00   0.000E+00   0.000E+00   0.000E+00      2    11    12
    14          -1           0           1      0.0000      0.0000    -15.0000      0.1667   3.000E+00   0.000E+00   6.000E-02   0.000E+00   0.000E+00           F           F   0.000E+00   0.000E+00   1.000E+00   1.000E+00   1.000E+00   1.000E+00   1.000E+00   0.000E+00   0.000E+00   0.000E+00      2    12    13
    15          -1           0           1      0.0000      0.0000    -14.5000      0.1833   3.000E+00   0.000E+00   6.000E-02   0.000E+00   0.000E+00           F           F   0.000E+00   0.000E+00   1.000E+00   1.000E+00   1.000E+00   1.000E+00   1.000E+00   0.000E+00   0.000E+00   0.000E+00      2    13    14
    16          -1           0           1      0.0000      0.0000    -14.0000      0.2000   3.000E+00   0.000E+00   6.000E-02   0.000E+00   0.000E+00           F           F   0.000E+00   0.000E+00   1.000E+00   1.000E+00   1.000E+00   1.000E+00   1.000E+00   0.000E+00   0.000E+00   0.000E+00      2    14    15
    17          -1           0           1      0.0000      0.0000    -13.5000      0.2167   3.000E+00   0.000E+00   6.000E-02   0.000E+00   0.000E+00           F           F   0.000E+00   0.000E+00   1.000E+00   1.000E+00   1.000E+00   1.000E+00   1.000E+00   0.000E+00   0.000E+00   0.000E+00      2    15    16
    18          -1           0           1      0.0000      0.0000    -13.0000      0.2333   3.000E+00   0.000E+00   6.000E-02   0.000E+00   0.000E+00           F           F   0.000E+00   0.000E+00   1.000E+00   1.000E+00   1.000E+00   1.000E+00   1.000E+00   0.000E+00   0.000E+00   0.000E+00      2    16    17
    19          -1           0           1      0.0000      0.0000    -12.5000      0.2500   3.000E+00   0.000E+00   6.000E-02   0.000E+00   0.000E+00           F           F   0.000E+00   0.000E+00   1.000E+00   1.000E+00   1.000E+00   1.000E+00   1.000E+00   0.000E+00   0.000E+00   0.000E+00      2    17    18
    20          -1           0           1      0.0000      0.0000    -12.0000      0.2667   3.000E+00   0.000E+00   6.000E-02   0.000E+00   0.000E+00           F           F   0.000E+00   0.000E+00   1.000E+00   1.000E+00   1.000E+00   1.000E+00   1.000E+00   0.000E+00   0.000E+00   0.000E+00      2    18    19
    21          -1           0           1      0.0000      0.0000    -11.5000      0.2833   3.000E+00   0.000E+00   6.000E-02   0.000E+00   0.000E+00           F           F   0.000E+00   0.000E+00   1.000E+00   1.000E+00   1.000E+00   1.000E+00   1.000E+00   0.000E+00   0.000E+00   0.000E+00      2    19    20
    22          -1           0           1      0.0000      0.0000    -11.0000      0.3000   3.000E+00   0.000E+00   6.000E-02   0.000E+00   0.000E+00           F           F   0.000E+00   0.000E+00   1.000E+00   1.000E+00   1.000E+00   1.000E+00   1.000E+00   0.000E+00   0.000E+00   0.000E+00      2    20    21
    23          -1           0           1      0.0000      0.0000    -10.5000      0.3167   3.000E+00   0.000E+00   6.000E-02   0.000E+00   0.000E+00           F           F   0.000E+00   0.000E+00   1.000E+00   1.000E+00   1.000E+00   1.000E+00   1.000E+00   0.000E+00   0.000E+00   0.000E+00      2    21    22
    24          -1           0           1      0.0000      0.0000    -10.0000      0.3333   3.000E+00   0.000E+00   6.000E-02   0.000E+00   0.000E+00           F           F   0.000E+00   0.000E+00   1.000E+00   1.000E+00   1.000E+00   1.000E+00   1.000E+00   0.000E+00   0.000E+00   0.000E+00      2    22    23
    25          -1           0           1      0.0000      0.0000     -9.5000      0.3500   3.000E+00   0.000E+00   6.000E-02   0.000E+00   0.000E+00           F           F   0.000E+00   0.000E+00   1.000E+00   1.000E+00   1.000E+00   1.000E+00   1.000E+00   0.000E+00   0.000E+00   0.000E+00      2    23    24
    26          -1           0           1      0.0000      0.0000     -9.0000      0.3667   3.000E+00   0.000E+00   6.000E-02   0.000E+00   0.000E+00           F           F   0.000E+00   0.000E+00   1.000E+00   1.000E+00   1.000E+00   1.000E+00   1.000E+00   0.000E+00   0.000E+00   0.000E+00      2    24    25
    27          -1           0           1      0.0000      0.0000     -8.5000      0.3833   3.000E+00   0.000E+00   6.000E-02   0.000E+00   0.000E+00           F           F   0.000E+00   0.000E+00   1.000E+00   1.000E+00   1.000E+00   1.000E+00   1.000E+00   0.000E+00   0.000E+00   0.000E+00      2    25    26
    28          -1           0           1      0.0000      0.0000     -8.0000      0.4000   3.000E+00   0.000E+00   6.000E-02   0.000E+00   0.000E+00           F           F   0.000E+00   0.000E+00   1.000E+00   1.000E+00   1.000E+00   1.000E+00   1.000E+00   0.000E+00   0.000E+00   0.000E+00      2    26    27
    29          -1           0           1      0.0000      0.0000     -7.5000      0.4167   3.000E+00   0.000E+00   6.000E-02   0.000E+00   0.000E+00           F           F   0.000E+00   0.000E+00   1.000E+00   1.000E+00   1.000E+00   1.000E+00   1.000E+00   0.000E+00   0.000E+00   0.000E+00      2    27    28
    30          -1           0           1      0.0000      0.0000     -7.0000      0.4333   3.000E+00   0.000E+00   6.000E-02   0.000E+00   0.000E+00           F           F   0.000E+00   0.000E+00   1.000E+00   1.000E+00   1.000E+00   1.000E+00   1.000E+00   0.000E+00   0.000E+00   0.000E+00      2    28    29
    31          -1           0           1      0.0000      0.0000     -6.5000      0.4500   3.000E+00   0.000E+00   6.000E-02   0.000E+00   0.000E+00           F           F   0.000E+00   0.000E+00   1.000E+00   1.000E+00   1.000E+00   1.000E+00   1.000E+00   0.000E+00   0.000E+00   0.000E+00      2    29    30
    32          -1           0           1      0.0000      0.0000     -6.0000      0.4667   3.000E+00   0.000E+00   6.000E-02   0.000E+00   0.000E+00           F           F   0.000E+00   0.000E+00   1.000E+00   1.000E+00   1.000E+00   1.000E+00   1.000E+00   0.000E+00   0.000E+00   0.000E+00      2    30    31
    33          -1           0           1      0.0000      0.0000     -5.5000      0.4833   3.000E+00   0.000E+00   6.000E-02   0.000E+00   0.000E+00           F           F   0.000E+00   0.000E+00   1.000E+00   1.000E+00   1.000E+00   1.000E+00   1.000E+00   0.000E+00   0.000E+00   0.000E+00      2    31    32
    34          -1           0           1      0.0000      0.0000     -5.0000      0.5000   3.000E+00   0.000E+00   6.000E-02   0.000E+00   0.000E+00           F           F   0.000E+00   0.000E+00   1.000E+00   1.000E+00   1.000E+00   1.000E+00   1.000E+00   0.000E+00   0.000E+00   0.000E+00      2    32    33
    35          -1           0           1      0.0000      0.0000     -4.5000      0.5167   3.000E+00   0.000E+00   6.000E-02   0.000E+00   0.000E+00           F           F   0.000E+00   0.000E+00   1.000E+00   1.000E+00   1.000E+00   1.000E+00   1.000E+00   0.000E+00   0.000E+00   0.000E+00      2    33    34
    36          -1           0           1      0.0000      0.0000     -4.0000      0.5333   3.000E+00   0.000E+00   6.000E-02   0.000E+00   0.000E+00           F           F   0.000E+00   0.000E+00   1.000E+00   1.000E+00   1.000E+00   1.000E+00   1.000E+00   0.000E+00   0.000E+00   0.000E+00      2    34    35
    37          -1           0           1      0.0000      0.0000     -3.5000      0.5500   3.000E+00   0.000E+00   6.000E-02   0.000E+00   0.000E+00           F           F   0.000E+00   0.000E+00   1.000E+00   1.000E+00   1.000E+00   1.000E+00   1.000E+00   0.000E+00   0.000E+00   0.000E+00      2    35    36
    38          -1           0           1      0.0000      0.0000     -3.0000      0.5667   3.000E+00   0.000E+00   6.000E-02   0.000E+00   0.000E+00           F           F   0.000E+00   0.000E+00   1.000E+00   1.000E+00   1.000E+00   1.000E+00   1.000E+00   0.000E+00   0.000E+00   0.000E+00      2    36    37
    39          -1           0           1      0.0000      0.0000     -2.5000      0.5833   3.000E+00   0.000E+00   6.000E-02   0.000E+00   0.000E+00           F           F   0.000E+00   0.000E+00   1.000E+00   1.000E+00   1.000E+00   1.000E+00   1.000E+00   0.000E+00   0.000E+00   0.000E+00      2    37    38
    40          -1           0           1      0.0000      0.0000     -2.0000      0.6000   3.000E+00   0.000E+00   6.000E-02   0.000E+00   0.000E+00           F           F   0.000E+00   0.000E+00   1.000E+00   1.000E+00   1.000E+00   1.000E+00   1.000E+00   0.000E+00   0.000E+00   0.000E+00      2    38    39
    41          -1           0           1      0.0000      0.0000     -1.5000      0.6167   3.000E+00   0.000E+00   6.000E-02   0.000E+00   0.000E+00           F           F   0.000E+00   0.000E+00   1.000E+00   1.000E+00   1.000E+00   1.000E+00   1.000E+00   0.000E+00   0.000E+00   0.000E+00      2    39    40
    42          -1           0           1      0.0000      0.0000     -1.0000      0.6333   3.000E+00   0.000E+00   6.000E-02   0.000E+00   0.000E+00           F           F   0.000E+00   0.000E+00   1.000E+00   1.000E+00   1.000E+00   1.000E+00   1.000E+00   0.000E+00   0.000E+00   0.000E+00      2    40    41
    43          -1           0           1      0.0000      0.0000     -0.5000      0.6500   3.000E+00   0.000E+00   6.000E-02   0.000E+00   0.000E+00           F           F   0.000E+00   0.000E+00   1.000E+00   1.000E+00   1.000E+00   1.000E+00   1.000E+00   0.000E+00   0.000E+00   0.000E+00      2    41    42
    44          -1           0           1      0.0000      0.0000      0.5000      0.6833   3.000E+00   0.000E+00   6.000E-02   0.000E+00   0.000E+00           F           F   0.000E+00   0.000E+00   1.000E+00   1.000E+00   1.000E+00   1.000E+00   1.000E+00   0.000E+00   0.000E+00   0.000E+00      2     3    43
    45          -1           0           1      0.0000      0.0000      1.0000      0.7000   3.000E+00   0.000E+00   6.000E-02   0.000E+00   0.000E+00           F           F   0.000E+00   0.000E+00   1.000E+00   1.000E+00   1.000E+00   1.000E+00   1.000E+00   0.000E+00   0.000E+00   0.000E+00      2    43    44
    46          -1           0           1      0.0000      0.0000      1.5000      0.7167   3.000E+00   0.000E+00   6.000E-02   0.000E+00   0.000E+00           F           F   0.000E+00   0.000E+00   1.000E+00   1.000E+00   1.000E+00   1.000E+00   1.000E+00   0.000E+00   0.000E+00   0.000E+00      2    44    45
    47          -1           0           1      0.0000      0.0000      2.0000      0.7333   3.000E+00   0.000E+00   6.000E-02   0.000E+00   0.000E+00           F           F   0.000E+00   0.000E+00   1.000E+00   1.000E+00   1.000E+00   1.000E+00   1.000E+00   0.000E+00   0.000E+00   0.000E+00      2    45    46
    48          -1           0           1      0.0000      0.0000      2.5000      0.7500   3.000E+00   0.000E+00   6.000E-02   0.000E+00   0.000E+00           F           F   0.000E+00   0.000E+00   1.000E+00   1.000E+00   1.000E+00   1.000E+00   1.000E+00   0.000E+00   0.000E+00   0.000E+00      2    46    47
    49          -1           0           1      0.0000      0.0000      3.0000      0.7667   3.000E+00   0.000E+00   6.000E-02   0.000E+00   0.000E+00           F           F   0.000E+00   0.000E+00   1.000E+00   1.000E+00   1.000E+00   1.000E+00   1.000E+00   0.000E+00   0.000E+00   0.000E+00      2    47    48
    50          -1           0           1      0.0000      0.0000      3.5000      0.7833   3.000E+00   0.000E+00   6.000E-02   0.000E+00   0.000E+00           F           F   0.000E+00   0.000E+00   1.000E+00   1.000E+00   1.000E+00   1.000E+00   1.000E+00   0.000E+00   0.000E+00   0.000E+00      2    48    49
    51          -1           0           1      0.0000      0.0000      4.0000      0.8000   3.000E+00   0.000E+00   6.000E-02   0.000E+00   0.000E+00           F           F   0.000E+00   0.000E+00   1.000E+00   1.000E+00   1.000E+00   1.000E+00   1.000E+00   0.000E+00   0.000E+00   0.000E+00      2    49    50
    52          -1           0           1      0.0000      0.0000      4.5000      0.8167   3.000E+00   0.000E+00   6.000E-02   0.000E+00   0.000E+00           F           F   0.000E+00   0.000E+00   1.000E+00   1.000E+00   1.000E+00   1.000E+00   1.000E+00   0.000E+00   0.000E+00   0.000E+00      2    50    51
    53          -1           0           1      0.0000      0.0000      5.0000      0.8333   3.000E+00   0.000E+00   6.000E-02   0.000E+00   0.000E+00           F           F   0.000E+00   0.000E+00   1.000E+00   1.000E+00   1.000E+00   1.000E+00   1.000E+00   0.000E+00   0.000E+00   0.000E+00      2    51    52
    54          -1           0           1      0.0000      0.0000      5.5000      0.8500   3.000E+00   0.000E+00   6.000E-02   0.000E+00   0.000E+00           F           F   0.000E+00   0.000E+00   1.000E+00   1.000E+00   1.000E+00   1.000E+00   1.000E+00   0.000E+00   0.000E+00   0.000E+00      2    52    53
    55          -1           0           1      0.0000      0.0000      6.0000      0.8667   3.000E+00   0.000E+00   6.000E-02   0.000E+00   0.000E+00           F           F   0.000E+00   0.000E+00   1.000E+00   1.000E+00   1.000E+00   1.000E+00   1.000E+00   0.000E+00   0.000E+00   0.000E+00      2    53    54
    56          -1           0           1      0.0000      0.0000      6.5000      0.8833   3.000E+00   0.000E+00   6.000E-02   0.000E+00   0.000E+00           F           F   0.000E+00   0.000E+00   1.000E+00   1.000E+00   1.000E+00   1.000E+00   1.000E+00   0.000E+00   0.000E+00   0.000E+00      2    54    55
    57          -1           0           1      0.0000      0.0000      7.0000      0.9000   3.000E+00   0.000E+00   6.000E-02   0.000E+00   0.000E+00           F           F   0.000E+00   0.000E+00   1.000E+00   1.000E+00   1.000E+00   1.000E+00   1.000E+00   0.000E+00   0.000E+00   0.000E+00      2    55    56
    58          -1           0           1      0.0000      0.0000      7.5000      0.9167   3.000E+00   0.000E+00   6.000E-02   0.000E+00   0.000E+00           F           F   0.000E+00   0.000E+00   1.000E+00   1.000E+00   1.000E+00   1.000E+00   1.000E+00   0.000E+00   0.000E+00   0.000E+00      2    56    57
    59          -1           0           1      0.0000      0.0000      8.0000      0.9333   3.000E+00   0.000E+00   6.000E-02   0.000E+00   0.000E+00           F           F   0.000E+00   0.000E+00   1.000E+00   1.000E+00   1.000E+00   1.000E+00   1.000E+00   0.000E+00   0.000E+00   0.000E+00      2    57    58
    60          -1           0           1      0.0000      0.0000      8.5000      0.9500   3.000E+00   0.000E+00   6.000E-02   0.000E+00   0.000E+00           F           F   0.000E+00   0.000E+00   1.000E+00   1.000E+00   1.000E+00   1.000E+00   1.000E+00   0.000E+00   0.000E+00   0.000E+00      2    58    59
    61          -1           0           1      0.0000      0.0000      9.0000      0.9667   3.000E+00   0.000E+00   6.000E-02   0.000E+00   0.000E+00           F           F   0.000E+00   0.000E+00   1.000E+00   1.000E+00   1.000E+00   1.000E+00   1.000E+00   0.000E+00   0.000E+00   0.000E+00      2    59    60
    62          -1           0           1      0.0000      0.0000      9.5000      0.9833   3.000E+00   0.000E+00   6.000E-02   0.000E+00   0.000E+00           F           F   0.000E+00   0.000E+00   1.000E+00   1.000E+00   1.000E+00   1.000E+00   1.000E+00   0.000E+00   0.000E+00   0.000E+00      2    60    61
    63           3           0           1      0.0000      0.0000    -20.0000      0.0000   3.000E+00   0.000E+00   6.000E-02   0.000E+00   0.000E+00           F           F   0.000E+00   0.000E+00   1.000E+00   1.000E+00   1.000E+00   1.000E+00   1.000E+00   0.000E+00   0.000E+00   0.000E+00      1     1
    64           4           0           1      0.0000      0.0000      0.0000      0.6667   3.000E+00   0.000E+00   6.000E-02   0.000E+00   0.000E+00           F           F   0.000E+00   0.000E+00   1.000E+00   1.000E+00   1.000E+00   1.000E+00   1.000E+00   0.000E+00   0.000E+00   0.000E+00      1     3



Elements


   i    node1  node2      Length       Volume       MGVolume          R1          tMG1           t1             R2          tMG2           t2          MGDens1       MGDens2      PropWAMIT     FilledFlag   FillDensity    FillFSLoc     FillMass         Cd1            Ca1          Cp1          AxCa1         AxCp1        JAxCd1        JAxCa1        JAxCp1          Cd2           Ca2           Cp2          AxCa2         AxCp2        JAxCd2        JAxCa2        JAxCp2   
  (-)    (-)    (-)        (m)         (m^3)         (m^3)           (m)           (m)           (m)           (m)           (m)           (m)        (kg/m^3)      (kg/m^3)         (-)           (-)        (kg/m^3)         (-)          (kg)           (-)            (-)          (-)           (-)           (-)           (-)           (-)           (-)           (-)            (-)          (-)           (-)           (-)           (-)           (-)           (-)    
     1      1     63   1.00000E-04   2.82743E-03   0.00000E+00   3.00000E+00   0.00000E+00   6.00000E-02   3.00000E+00   0.00000E+00   6.00000E-02   0.00000E+00   0.00000E+00             F             F   0.00000E+00   0.00000E+00   0.00000E+00   1.00000E+00   1.00000E+00   1.00000E+00   1.00000E+00   1.00000E+00   0.00000E+00   0.00000E+00   1.00000E+00   1.00000E+00   1.00000E+00   1.00000E+00   1.00000E+00   1.00000E+00   0.00000E+00   0.00000E+00   0.00000E+00
     2      3      5   5.00000E-01   1.41372E+01   0.00000E+00   3.00000E+00   0.00000E+00   6.00000E-02   3.00000E+00   0.00000E+00   6.00000E-02   0.00000E+00   0.00000E+00             F             F   0.00000E+00   0.00000E+00   0.00000E+00   1.00000E+00   1.00000E+00   1.00000E+00   1.00000E+00   1.00000E+00   0.00000E+00   0.00000E+00   0.00000E+00   1.00000E+00   1.00000E+00   1.00000E+00   1.00000E+00   1.00000E+00   0.00000E+00   0.00000E+00   0.00000E+00
     3     64     44   5.00000E-01   1.41372E+01   0.00000E+00   3.00000E+00   0.00000E+00   6.00000E-02   3.00000E+00   0.00000E+00   6.00000E-02   0.00000E+00   0.00000E+00             F             F   0.00000E+00   0.00000E+00   0.00000E+00   1.00000E+00   1.00000E+00   1.00000E+00   1.00000E+00   1.00000E+00   0.00000E+00   0.00000E+00   0.00000E+00   1.00000E+00   1.00000E+00   1.00000E+00   1.00000E+00   1.00000E+00   0.00000E+00   0.00000E+00   0.00000E+00
     4      5      6   5.00000E-01   1.41372E+01   0.00000E+00   3.00000E+00   0.00000E+00   6.00000E-02   3.00000E+00   0.00000E+00   6.00000E-02   0.00000E+00   0.00000E+00             F             F   0.00000E+00   0.00000E+00   0.00000E+00   1.00000E+00   1.00000E+00   1.00000E+00   1.00000E+00   1.00000E+00   0.00000E+00   0.00000E+00   0.00000E+00   1.00000E+00   1.00000E+00   1.00000E+00   1.00000E+00   1.00000E+00   0.00000E+00   0.00000E+00   0.00000E+00
     5      6      7   5.00000E-01   1.41372E+01   0.00000E+00   3.00000E+00   0.00000E+00   6.00000E-02   3.00000E+00   0.00000E+00   6.00000E-02   0.00000E+00   0.00000E+00             F             F   0.00000E+00   0.00000E+00   0.00000E+00   1.00000E+00   1.00000E+00   1.00000E+00   1.00000E+00   1.00000E+00   0.00000E+00   0.00000E+00   0.00000E+00   1.00000E+00   1.00000E+00   1.00000E+00   1.00000E+00   1.00000E+00   0.00000E+00   0.00000E+00   0.00000E+00
     6      7      8   5.00000E-01   1.41372E+01   0.00000E+00   3.00000E+00   0.00000E+00   6.00000E-02   3.00000E+00   0.00000E+00   6.00000E-02   0.00000E+00   0.00000E+00             F             F   0.00000E+00   0.00000E+00   0.00000E+00   1.00000E+00   1.00000E+00   1.00000E+00   1.00000E+00   1.00000E+00   0.00000E+00   0.00000E+00   0.00000E+00   1.00000E+00   1.00000E+00   1.00000E+00   1.00000E+00   1.00000E+00   0.00000E+00   0.00000E+00   0.00000E+00
     7      8      9   5.00000E-01   1.41372E+01   0.00000E+00   3.00000E+00   0.00000E+00   6.00000E-02   3.00000E+00   0.00000E+00   6.00000E-02   0.00000E+00   0.00000E+00             F             F   0.00000E+00   0.00000E+00   0.00000E+00   1.00000E+00   1.00000E+00   1.00000E+00   1.00000E+00   1.00000E+00   0.00000E+00   0.00000E+00   0.00000E+00   1.00000E+00   1.00000E+00   1.00000E+00   1.00000E+00   1.00000E+00   0.00000E+00   0.00000E+00   0.00000E+00
     8      9     10   5.00000E-01   1.41372E+01   0.00000E+00   3.00000E+00   0.00000E+00   6.00000E-02   3.00000E+00   0.00000E+00   6.00000E-02   0.00000E+00   0.00000E+00             F             F   0.00000E+00   0.00000E+00   0.00000E+00   1.00000E+00   1.00000E+00   1.00000E+00   1.00000E+00   1.00000E+00   0.00000E+00   0.00000E+00   0.00000E+00   1.00000E+00   1.00000E+00   1.00000E+00   1.00000E+00   1.00000E+00   0.00000E+00   0.00000E+00   0.00000E+00
     9     10     11   5.00000E-01   1.41372E+01   0.00000E+00   3.00000E+00   0.00000E+00   6.00000E-02   3.00000E+00   0.00000E+00   6.00000E-02   0.00000E+00   0.00000E+00             F             F   0.00000E+00   0.00000E+00   0.00000E+00   1.00000E+00   1.00000E+00   1.00000E+00   1.00000E+00   1.00000E+00   0.00000E+00   0.00000E+00   0.00000E+00   1.00000E+00   1.00000E+00   1.00000E+00   1.00000E+00   1.00000E+00   0.00000E+00   0.00000E+00   0.00000E+00
    10     11     12   5.00000E-01   1.41372E+01   0.00000E+00   3.00000E+00   0.00000E+00   6.00000E-02   3.00000E+00   0.00000E+00   6.00000E-02   0.00000E+00   0.00000E+00             F             F   0.00000E+00   0.00000E+00   0.00000E+00   1.00000E+00   1.00000E+00   1.00000E+00   1.00000E+00   1.00000E+00   0.00000E+00   0.00000E+00   0.00000E+00   1.00000E+00   1.00000E+00   1.00000E+00   1.00000E+00   1.00000E+00   0.00000E+00   0.00000E+00   0.00000E+00
    11     12     13   5.00000E-01   1.41372E+01   0.00000E+00   3.00000E+00   0.00000E+00   6.00000E-02   3.00000E+00   0.00000E+00   6.00000E-02   0.00000E+00   0.00000E+00             F             F   0.00000E+00   0.00000E+00   0.00000E+00   1.00000E+00   1.00000E+00   1.00000E+00   1.00000E+00   1.00000E+00   0.00000E+00   0.00000E+00   0.00000E+00   1.00000E+00   1.00000E+00   1.00000E+00   1.00000E+00   1.00000E+00   0.00000E+00   0.00000E+00   0.00000E+00
    12     13     14   5.00000E-01   1.41372E+01   0.00000E+00   3.00000E+00   0.00000E+00   6.00000E-02   3.00000E+00   0.00000E+00   6.00000E-02   0.00000E+00   0.00000E+00             F             F   0.00000E+00   0.00000E+00   0.00000E+00   1.00000E+00   1.00000E+00   1.00000E+00   1.00000E+00   1.00000E+00   0.00000E+00   0.00000E+00   0.00000E+00   1.00000E+00   1.00000E+00   1.00000E+00   1.00000E+00   1.00000E+00   0.00000E+00   0.00000E+00   0.00000E+00
    13     14     15   5.00000E-01   1.41372E+01   0.00000E+00   3.00000E+00   0.00000E+00   6.00000E-02   3.00000E+00   0.00000E+00   6.00000E-02   0.00000E+00   0.00000E+00             F             F   0.00000E+00   0.00000E+00   0.00000E+00   1.00000E+00   1.00000E+00   1.00000E+00   1.00000E+00   1.00000E+00   0.00000E+00   0.00000E+00   0.00000E+00   1.00000E+00   1.00000E+00   1.00000E+00   1.00000E+00   1.00000E+00   0.00000E+00   0.00000E+00   0.00000E+00
    14     15     16   5.00000E-01   1.41372E+01   0.00000E+00   3.00000E+00   0.00000E+00   6.00000E-02   3.00000E+00   0.00000E+00   6.00000E-02   0.00000E+00   0.00000E+00             F             F   0.00000E+00   0.00000E+00   0.00000E+00   1.00000E+00   1.00000E+00   1.00000E+00   1.00000E+00   1.00000E+00   0.00000E+00   0.00000E+00   0.00000E+00   1.00000E+00   1.00000E+00   1.00000E+00   1.00000E+00   1.00000E+00   0.00000E+00   0.00000E+00   0.00000E+00
    15     16     17   5.00000E-01   1.41372E+01   0.00000E+00   3.00000E+00   0.00000E+00   6.00000E-02   3.00000E+00   0.00000E+00   6.00000E-02   0.00000E+00   0.00000E+00             F             F   0.00000E+00   0.00000E+00   0.00000E+00   1.00000E+00   1.00000E+00   1.00000E+00   1.00000E+00   1.00000E+00   0.00000E+00   0.00000E+00   0.00000E+00   1.00000E+00   1.00000E+00   1.00000E+00   1.00000E+00   1.00000E+00   0.00000E+00   0.00000E+00   0.00000E+00
    16     17     18   5.00000E-01   1.41372E+01   0.00000E+00   3.00000E+00   0.00000E+00   6.00000E-02   3.00000E+00   0.00000E+00   6.00000E-02   0.00000E+00   0.00000E+00             F             F   0.00000E+00   0.00000E+00   0.00000E+00   1.00000E+00   1.00000E+00   1.00000E+00   1.00000E+00   1.00000E+00   0.00000E+00   0.00000E+00   0.00000E+00   1.00000E+00   1.00000E+00   1.00000E+00   1.00000E+00   1.00000E+00   0.00000E+00   0.00000E+00   0.00000E+00
    17     18     19   5.00000E-01   1.41372E+01   0.00000E+00   3.00000E+00   0.00000E+00   6.00000E-02   3.00000E+00   0.00000E+00   6.00000E-02   0.00000E+00   0.00000E+00             F             F   0.00000E+00   0.00000E+00   0.00000E+00   1.00000E+00   1.00000E+00   1.00000E+00   1.00000E+00   1.00000E+00   0.00000E+00   0.00000E+00   0.00000E+00   1.00000E+00   1.00000E+00   1.00000E+00   1.00000E+00   1.00000E+00   0.00000E+00   0.00000E+00   0.00000E+00
    18     19     20   5.00000E-01   1.41372E+01   0.00000E+00   3.00000E+00   0.00000E+00   6.00000E-02   3.00000E+00   0.00000E+00   6.00000E-02   0.00000E+00   0.00000E+00             F             F   0.00000E+00   0.00000E+00   0.00000E+00   1.00000E+00   1.00000E+00   1.00000E+00   1.00000E+00   1.00000E+00   0.00000E+00   0.00000E+00   0.00000E+00   1.00000E+00   1.00000E+00   1.00000E+00   1.00000E+00   1.00000E+00   0.00000E+00   0.00000E+00   0.00000E+00
    19     20     21   5.00000E-01   1.41372E+01   0.00000E+00   3.00000E+00   0.00000E+00   6.00000E-02   3.00000E+00   0.00000E+00   6.00000E-02   0.00000E+00   0.00000E+00             F             F   0.00000E+00   0.00000E+00   0.00000E+00   1.00000E+00   1.00000E+00   1.00000E+00   1.00000E+00   1.00000E+00   0.00000E+00   0.00000E+00   0.00000E+00   1.00000E+00   1.00000E+00   1.00000E+00   1.00000E+00   1.00000E+00   0.00000E+00   0.00000E+00   0.00000E+00
    20     21     22   5.00000E-01   1.41372E+01   0.00000E+00   3.00000E+00   0.00000E+00   6.00000E-02   3.00000E+00   0.00000E+00   6.00000E-02   0.00000E+00   0.00000E+00             F             F   0.00000E+00   0.00000E+00   0.00000E+00   1.00000E+00   1.00000E+00   1.00000E+00   1.00000E+00   1.00000E+00   0.00000E+00   0.00000E+00   0.00000E+00   1.00000E+00   1.00000E+00   1.00000E+00   1.00000E+00   1.00000E+00   0.00000E+00   0.00000E+00   0.00000E+00
    21     22     23   5.00000E-01   1.41372E+01   0.00000E+00   3.00000E+00   0.00000E+00   6.00000E-02   3.00000E+00   0.00000E+00   6.00000E-02   0.00000E+00   0.00000E+00             F             F   0.00000E+00   0.00000E+00   0.00000E+00   1.00000E+00   1.00000E+00   1.00000E+00   1.00000E+00   1.00000E+00   0.00000E+00   0.00000E+00   0.00000E+00   1.00000E+00   1.00000E+00   1.00000E+00   1.00000E+00   1.00000E+00   0.00000E+00   0.00000E+00   0.00000E+00
    22     23     24   5.00000E-01   1.41372E+01   0.00000E+00   3.00000E+00   0.00000E+00   6.00000E-02   3.00000E+00   0.00000E+00   6.00000E-02   0.00000E+00   0.00000E+00             F             F   0.00000E+00   0.00000E+00   0.00000E+00   1.00000E+00   1.00000E+00   1.00000E+00   1.00000E+00   1.00000E+00   0.00000E+00   0.00000E+00   0.00000E+00   1.00000E+00   1.00000E+00   1.00000E+00   1.00000E+00   1.00000E+00   0.00000E+00   0.00000E+00   0.00000E+00
    23     24     25   5.00000E-01   1.41372E+01   0.00000E+00   3.00000E+00   0.00000E+00   6.00000E-02   3.00000E+00   0.00000E+00   6.00000E-02   0.00000E+00   0.00000E+00             F             F   0.00000E+00   0.00000E+00   0.00000E+00   1.00000E+00   1.00000E+00   1.00000E+00   1.00000E+00   1.00000E+00   0.00000E+00   0.00000E+00   0.00000E+00   1.00000E+00   1.00000E+00   1.00000E+00   1.00000E+00   1.00000E+00   0.00000E+00   0.00000E+00   0.00000E+00
    24     25     26   5.00000E-01   1.41372E+01   0.00000E+00   3.00000E+00   0.00000E+00   6.00000E-02   3.00000E+00   0.00000E+00   6.00000E-02   0.00000E+00   0.00000E+00             F             F   0.00000E+00   0.00000E+00   0.00000E+00   1.00000E+00   1.00000E+00   1.00000E+00   1.00000E+00   1.00000E+00   0.00000E+00   0.00000E+00   0.00000E+00   1.00000E+00   1.00000E+00   1.00000E+00   1.00000E+00   1.00000E+00   0.00000E+00   0.00000E+00   0.00000E+00
    25     26     27   5.00000E-01   1.41372E+01   0.00000E+00   3.00000E+00   0.00000E+00   6.00000E-02   3.00000E+00   0.00000E+00   6.00000E-02   0.00000E+00   0.00000E+00             F             F   0.00000E+00   0.00000E+00   0.00000E+00   1.00000E+00   1.00000E+00   1.00000E+00   1.00000E+00   1.00000E+00   0.00000E+00   0.00000E+00   0.00000E+00   1.00000E+00   1.00000E+00   1.00000E+00   1.00000E+00   1.00000E+00   0.00000E+00   0.00000E+00   0.00000E+00
    26     27     28   5.00000E-01   1.41372E+01   0.00000E+00   3.00000E+00   0.00000E+00   6.00000E-02   3.00000E+00   0.00000E+00   6.00000E-02   0.00000E+00   0.00000E+00             F             F   0.00000E+00   0.00000E+00   0.00000E+00   1.00000E+00   1.00000E+00   1.00000E+00   1.00000E+00   1.00000E+00   0.00000E+00   0.00000E+00   0.00000E+00   1.00000E+00   1.00000E+00   1.00000E+00   1.00000E+00   1.00000E+00   0.00000E+00   0.00000E+00   0.00000E+00
    27     28     29   5.00000E-01   1.41372E+01   0.00000E+00   3.00000E+00   0.00000E+00   6.00000E-02   3.00000E+00   0.00000E+00   6.00000E-02   0.00000E+00   0.00000E+00             F             F   0.00000E+00   0.00000E+00   0.00000E+00   1.00000E+00   1.00000E+00   1.00000E+00   1.00000E+00   1.00000E+00   0.00000E+00   0.00000E+00   0.00000E+00   1.00000E+00   1.00000E+00   1.00000E+00   1.00000E+00   1.00000E+00   0.00000E+00   0.00000E+00   0.00000E+00
    28     29     30   5.00000E-01   1.41372E+01   0.00000E+00   3.00000E+00   0.00000E+00   6.00000E-02   3.00000E+00   0.00000E+00   6.00000E-02   0.00000E+00   0.00000E+00             F             F   0.00000E+00   0.00000E+00   0.00000E+00   1.00000E+00   1.00000E+00   1.00000E+00   1.00000E+00   1.00000E+00   0.00000E+00   0.00000E+00   0.00000E+00   1.00000E+00   1.00000E+00   1.00000E+00   1.00000E+00   1.00000E+00   0.00000E+00   0.00000E+00   0.00000E+00
    29     30     31   5.00000E-01   1.41372E+01   0.00000E+00   3.00000E+00   0.00000E+00   6.00000E-02   3.00000E+00   0.00000E+00   6.00000E-02   0.00000E+00   0.00000E+00             F             F   0.00000E+00   0.00000E+00   0.00000E+00   1.00000E+00   1.00000E+00   1.00000E+00   1.00000E+00   1.00000E+00   0.00000E+00   0.00000E+00   0.00000E+00   1.00000E+00   1.00000E+00   1.00000E+00   1.00000E+00   1.00000E+00   0.00000E+00   0.00000E+00   0.00000E+00
    30     31     32   5.00000E-01   1.41372E+01   0.00000E+00   3.00000E+00   0.00000E+00   6.00000E-02   3.00000E+00   0.00000E+00   6.00000E-02   0.00000E+00   0.00000E+00             F             F   0.00000E+00   0.00000E+00   0.00000E+00   1.00000E+00   1.00000E+00   1.00000E+00   1.00000E+00   1.00000E+00   0.00000E+00   0.00000E+00   0.00000E+00   1.00000E+00   1.00000E+00   1.00000E+00   1.00000E+00   1.00000E+00   0.00000E+00   0.00000E+00   0.00000E+00
    31     32     33   5.00000E-01   1.41372E+01   0.00000E+00   3.00000E+00   0.00000E+00   6.00000E-02   3.00000E+00   0.00000E+00   6.00000E-02   0.00000E+00   0.00000E+00             F             F   0.00000E+00   0.00000E+00   0.00000E+00   1.00000E+00   1.00000E+00   1.00000E+00   1.00000E+00   1.00000E+00   0.00000E+00   0.00000E+00   0.00000E+00   1.00000E+00   1.00000E+00   1.00000E+00   1.00000E+00   1.00000E+00   0.00000E+00   0.00000E+00   0.00000E+00
    32     33     34   5.00000E-01   1.41372E+01   0.00000E+00   3.00000E+00   0.00000E+00   6.00000E-02   3.00000E+00   0.00000E+00   6.00000E-02   0.00000E+00   0.00000E+00             F             F   0.00000E+00   0.00000E+00   0.00000E+00   1.00000E+00   1.00000E+00   1.00000E+00   1.00000E+00   1.00000E+00   0.00000E+00   0.00000E+00   0.00000E+00   1.00000E+00   1.00000E+00   1.00000E+00   1.00000E+00   1.00000E+00   0.00000E+00   0.00000E+00   0.00000E+00
    33     34     35   5.00000E-01   1.41372E+01   0.00000E+00   3.00000E+00   0.00000E+00   6.00000E-02   3.00000E+00   0.00000E+00   6.00000E-02   0.00000E+00   0.00000E+00             F             F   0.00000E+00   0.00000E+00   0.00000E+00   1.00000E+00   1.00000E+00   1.00000E+00   1.00000E+00   1.00000E+00   0.00000E+00   0.00000E+00   0.00000E+00   1.00000E+00   1.00000E+00   1.00000E+00   1.00000E+00   1.00000E+00   0.00000E+00   0.00000E+00   0.00000E+00
    34     35     36   5.00000E-01   1.41372E+01   0.00000E+00   3.00000E+00   0.00000E+00   6.00000E-02   3.00000E+00   0.00000E+00   6.00000E-02   0.00000E+00   0.00000E+00             F             F   0.00000E+00   0.00000E+00   0.00000E+00   1.00000E+00   1.00000E+00   1.00000E+00   1.00000E+00   1.00000E+00   0.00000E+00   0.00000E+00   0.00000E+00   1.00000E+00   1.00000E+00   1.00000E+00   1.00000E+00   1.00000E+00   0.00000E+00   0.00000E+00   0.00000E+00
    35     36     37   5.00000E-01   1.41372E+01   0.00000E+00   3.00000E+00   0.00000E+00   6.00000E-02   3.00000E+00   0.00000E+00   6.00000E-02   0.00000E+00   0.00000E+00             F             F   0.00000E+00   0.00000E+00   0.00000E+00   1.00000E+00   1.00000E+00   1.00000E+00   1.00000E+00   1.00000E+00   0.00000E+00   0.00000E+00   0.00000E+00   1.00000E+00   1.00000E+00   1.00000E+00   1.00000E+00   1.00000E+00   0.00000E+00   0.00000E+00   0.00000E+00
    36     37     38   5.00000E-01   1.41372E+01   0.00000E+00   3.00000E+00   0.00000E+00   6.00000E-02   3.00000E+00   0.00000E+00   6.00000E-02   0.00000E+00   0.00000E+00             F             F   0.00000E+00   0.00000E+00   0.00000E+00   1.00000E+00   1.00000E+00   1.00000E+00   1.00000E+00   1.00000E+00   0.00000E+00   0.00000E+00   0.00000E+00   1.00000E+00   1.00000E+00   1.00000E+00   1.00000E+00   1.00000E+00   0.00000E+00   0.00000E+00   0.00000E+00
    37     38     39   5.00000E-01   1.41372E+01   0.00000E+00   3.00000E+00   0.00000E+00   6.00000E-02   3.00000E+00   0.00000E+00   6.00000E-02   0.00000E+00   0.00000E+00             F             F   0.00000E+00   0.00000E+00   0.00000E+00   1.00000E+00   1.00000E+00   1.00000E+00   1.00000E+00   1.00000E+00   0.00000E+00   0.00000E+00   0.00000E+00   1.00000E+00   1.00000E+00   1.00000E+00   1.00000E+00   1.00000E+00   0.00000E+00   0.00000E+00   0.00000E+00
    38     39     40   5.00000E-01   1.41372E+01   0.00000E+00   3.00000E+00   0.00000E+00   6.00000E-02   3.00000E+00   0.00000E+00   6.00000E-02   0.00000E+00   0.00000E+00             F             F   0.00000E+00   0.00000E+00   0.00000E+00   1.00000E+00   1.00000E+00   1.00000E+00   1.00000E+00   1.00000E+00   0.00000E+00   0.00000E+00   0.00000E+00   1.00000E+00   1.00000E+00   1.00000E+00   1.00000E+00   1.00000E+00   0.00000E+00   0.00000E+00   0.00000E+00
    39     40     41   5.00000E-01   1.41372E+01   0.00000E+00   3.00000E+00   0.00000E+00   6.00000E-02   3.00000E+00   0.00000E+00   6.00000E-02   0.00000E+00   0.00000E+00             F             F   0.00000E+00   0.00000E+00   0.00000E+00   1.00000E+00   1.00000E+00   1.00000E+00   1.00000E+00   1.00000E+00   0.00000E+00   0.00000E+00   0.00000E+00   1.00000E+00   1.00000E+00   1.00000E+00   1.00000E+00   1.00000E+00   0.00000E+00   0.00000E+00   0.00000E+00
    40     41     42   5.00000E-01   1.41372E+01   0.00000E+00   3.00000E+00   0.00000E+00   6.00000E-02   3.00000E+00   0.00000E+00   6.00000E-02   0.00000E+00   0.00000E+00             F             F   0.00000E+00   0.00000E+00   0.00000E+00   1.00000E+00   1.00000E+00   1.00000E+00   1.00000E+00   1.00000E+00   0.00000E+00   0.00000E+00   0.00000E+00   1.00000E+00   1.00000E+00   1.00000E+00   1.00000E+00   1.00000E+00   0.00000E+00   0.00000E+00   0.00000E+00
    41     42     43   5.00000E-01   1.41372E+01   0.00000E+00   3.00000E+00   0.00000E+00   6.00000E-02   3.00000E+00   0.00000E+00   6.00000E-02   0.00000E+00   0.00000E+00             F             F   0.00000E+00   0.00000E+00   0.00000E+00   1.00000E+00   1.00000E+00   1.00000E+00   1.00000E+00   1.00000E+00   0.00000E+00   0.00000E+00   0.00000E+00   1.00000E+00   1.00000E+00   1.00000E+00   1.00000E+00   1.00000E+00   0.00000E+00   0.00000E+00   0.00000E+00
    42     43      4   5.00000E-01   1.41372E+01   0.00000E+00   3.00000E+00   0.00000E+00   6.00000E-02   3.00000E+00   0.00000E+00   6.00000E-02   0.00000E+00   0.00000E+00             F             F   0.00000E+00   0.00000E+00   0.00000E+00   1.00000E+00   1.00000E+00   1.00000E+00   1.00000E+00   1.00000E+00   0.00000E+00   0.00000E+00   0.00000E+00   1.00000E+00   1.00000E+00   1.00000E+00   1.00000E+00   1.00000E+00   0.00000E+00   0.00000E+00   0.00000E+00
    43     44     45   5.00000E-01   1.41372E+01   0.00000E+00   3.00000E+00   0.00000E+00   6.00000E-02   3.00000E+00   0.00000E+00   6.00000E-02   0.00000E+00   0.00000E+00             F             F   0.00000E+00   0.00000E+00   0.00000E+00   1.00000E+00   1.00000E+00   1.00000E+00   1.00000E+00   1.00000E+00   0.00000E+00   0.00000E+00   0.00000E+00   1.00000E+00   1.00000E+00   1.00000E+00   1.00000E+00   1.00000E+00   0.00000E+00   0.00000E+00   0.00000E+00
    44     45     46   5.00000E-01   1.41372E+01   0.00000E+00   3.00000E+00   0.00000E+00   6.00000E-02   3.00000E+00   0.00000E+00   6.00000E-02   0.00000E+00   0.00000E+00             F             F   0.00000E+00   0.00000E+00   0.00000E+00   1.00000E+00   1.00000E+00   1.00000E+00   1.00000E+00   1.00000E+00   0.00000E+00   0.00000E+00   0.00000E+00   1.00000E+00   1.00000E+00   1.00000E+00   1.00000E+00   1.00000E+00   0.00000E+00   0.00000E+00   0.00000E+00
    45     46     47   5.00000E-01   1.41372E+01   0.00000E+00   3.00000E+00   0.00000E+00   6.00000E-02   3.00000E+00   0.00000E+00   6.00000E-02   0.00000E+00   0.00000E+00             F             F   0.00000E+00   0.00000E+00   0.00000E+00   1.00000E+00   1.00000E+00   1.00000E+00   1.00000E+00   1.00000E+00   0.00000E+00   0.00000E+00   0.00000E+00   1.00000E+00   1.00000E+00   1.00000E+00   1.00000E+00   1.00000E+00   0.00000E+00   0.00000E+00   0.00000E+00
    46     47     48   5.00000E-01   1.41372E+01   0.00000E+00   3.00000E+00   0.00000E+00   6.00000E-02   3.00000E+00   0.00000E+00   6.00000E-02   0.00000E+00   0.00000E+00             F             F   0.00000E+00   0.00000E+00   0.00000E+00   1.00000E+00   1.00000E+00   1.00000E+00   1.00000E+00   1.00000E+00   0.00000E+00   0.00000E+00   0.00000E+00   1.00000E+00   1.00000E+00   1.00000E+00   1.00000E+00   1.00000E+00   0.00000E+00   0.00000E+00   0.00000E+00
    47     48     49   5.00000E-01   1.41372E+01   0.00000E+00   3.00000E+00   0.00000E+00   6.00000E-02   3.00000E+00   0.00000E+00   6.00000E-02   0.00000E+00   0.00000E+00             F             F   0.00000E+00   0.00000E+00   0.00000E+00   1.00000E+00   1.00000E+00   1.00000E+00   1.00000E+00   1.00000E+00   0.00000E+00   0.00000E+00   0.00000E+00   1.00000E+00   1.00000E+00   1.00000E+00   1.00000E+00   1.00000E+00   0.00000E+00   0.00000E+00   0.00000E+00
    48     49     50   5.00000E-01   1.41372E+01   0.00000E+00   3.00000E+00   0.00000E+00   6.00000E-02   3.00000E+00   0.00000E+00   6.00000E-02   0.00000E+00   0.00000E+00             F             F   0.00000E+00   0.00000E+00   0.00000E+00   1.00000E+00   1.00000E+00   1.00000E+00   1.00000E+00   1.00000E+00   0.00000E+00   0.00000E+00   0.00000E+00   1.00000E+00   1.00000E+00   1.00000E+00   1.00000E+00   1.00000E+00   0.00000E+00   0.00000E+00   0.00000E+00
    49     50     51   5.00000E-01   1.41372E+01   0.00000E+00   3.00000E+00   0.00000E+00   6.00000E-02   3.00000E+00   0.00000E+00   6.00000E-02   0.00000E+00   0.00000E+00             F             F   0.00000E+00   0.00000E+00   0.00000E+00   1.00000E+00   1.00000E+00   1.00000E+00   1.00000E+00   1.00000E+00   0.00000E+00   0.00000E+00   0.00000E+00   1.00000E+00   1.00000E+00   1.00000E+00   1.00000E+00   1.00000E+00   0.00000E+00   0.00000E+00   0.00000E+00
    50     51     52   5.00000E-01   1.41372E+01   0.00000E+00   3.00000E+00   0.00000E+00   6.00000E-02   3.00000E+00   0.00000E+00   6.00000E-02   0.00000E+00   0.00000E+00             F             F   0.00000E+00   0.00000E+00   0.00000E+00   1.00000E+00   1.00000E+00   1.00000E+00   1.00000E+00   1.00000E+00   0.00000E+00   0.00000E+00   0.00000E+00   1.00000E+00   1.00000E+00   1.00000E+00   1.00000E+00   1.00000E+00   0.00000E+00   0.00000E+00   0.00000E+00
    51     52     53   5.00000E-01   1.41372E+01   0.00000E+00   3.00000E+00   0.00000E+00   6.00000E-02   3.00000E+00   0.00000E+00   6.00000E-02   0.00000E+00   0.00000E+00             F             F   0.00000E+00   0.00000E+00   0.00000E+00   1.00000E+00   1.00000E+00   1.00000E+00   1.00000E+00   1.00000E+00   0.00000E+00   0.00000E+00   0.00000E+00   1.00000E+00   1.00000E+00   1.00000E+00   1.00000E+00   1.00000E+00   0.00000E+00   0.00000E+00   0.00000E+00
    52     53     54   5.00000E-01   1.41372E+01   0.00000E+00   3.00000E+00   0.00000E+00   6.00000E-02   3.00000E+00   0.00000E+00   6.00000E-02   0.00000E+00   0.00000E+00             F             F   0.00000E+00   0.00000E+00   0.00000E+00   1.00000E+00   1.00000E+00   1.00000E+00   1.00000E+00   1.00000E+00   0.00000E+00   0.00000E+00   0.00000E+00   1.00000E+00   1.00000E+00   1.00000E+00   1.00000E+00   1.00000E+00   0.00000E+00   0.00000E+00   0.00000E+00
    53     54     55   5.00000E-01   1.41372E+01   0.00000E+00   3.00000E+00   0.00000E+00   6.00000E-02   3.00000E+00   0.00000E+00   6.00000E-02   0.00000E+00   0.00000E+00             F             F   0.00000E+00   0.00000E+00   0.00000E+00   1.00000E+00   1.00000E+00   1.00000E+00   1.00000E+00   1.00000E+00   0.00000E+00   0.00000E+00   0.00000E+00   1.00000E+00   1.00000E+00   1.00000E+00   1.00000E+00   1.00000E+00   0.00000E+00   0.00000E+00   0.00000E+00
    54     55     56   5.00000E-01   1.41372E+01   0.00000E+00   3.00000E+00   0.00000E+00   6.00000E-02   3.00000E+00   0.00000E+00   6.00000E-02   0.00000E+00   0.00000E+00             F             F   0.00000E+00   0.00000E+00   0.00000E+00   1.00000E+00   1.00000E+00   1.00000E+00   1.00000E+00   1.00000E+00   0.00000E+00   0.00000E+00   0.00000E+00   1.00000E+00   1.00000E+00   1.00000E+00   1.00000E+00   1.00000E+00   0.00000E+00   0.00000E+00   0.00000E+00
    55     56     57   5.00000E-01   1.41372E+01   0.00000E+00   3.00000E+00   0.00000E+00   6.00000E-02   3.00000E+00   0.00000E+00   6.00000E-02   0.00000E+00   0.00000E+00             F             F   0.00000E+00   0.00000E+00   0.00000E+00   1.00000E+00   1.00000E+00   1.00000E+00   1.00000E+00   1.00000E+00   0.00000E+00   0.00000E+00   0.00000E+00   1.00000E+00   1.00000E+00   1.00000E+00   1.00000E+00   1.00000E+00   0.00000E+00   0.00000E+00   0.00000E+00
    56     57     58   5.00000E-01   1.41372E+01   0.00000E+00   3.00000E+00   0.00000E+00   6.00000E-02   3.00000E+00   0.00000E+00   6.00000E-02   0.00000E+00   0.00000E+00             F             F   0.00000E+00   0.00000E+00   0.00000E+00   1.00000E+00   1.00000E+00   1.00000E+00   1.00000E+00   1.00000E+00   0.00000E+00   0.00000E+00   0.00000E+00   1.00000E+00   1.00000E+00   1.00000E+00   1.00000E+00   1.00000E+00   0.00000E+00   0.00000E+00   0.00000E+00
    57     58     59   5.00000E-01   1.41372E+01   0.00000E+00   3.00000E+00   0.00000E+00   6.00000E-02   3.00000E+00   0.00000E+00   6.00000E-02   0.00000E+00   0.00000E+00             F             F   0.00000E+00   0.00000E+00   0.00000E+00   1.00000E+00   1.00000E+00   1.00000E+00   1.00000E+00   1.00000E+00   0.00000E+00   0.00000E+00   0.00000E+00   1.00000E+00   1.00000E+00   1.00000E+00   1.00000E+00   1.00000E+00   0.00000E+00   0.00000E+00   0.00000E+00
    58     59     60   5.00000E-01   1.41372E+01   0.00000E+00   3.00000E+00   0.00000E+00   6.00000E-02   3.00000E+00   0.00000E+00   6.00000E-02   0.00000E+00   0.00000E+00             F             F   0.00000E+00   0.00000E+00   0.00000E+00   1.00000E+00   1.00000E+00   1.00000E+00   1.00000E+00   1.00000E+00   0.00000E+00   0.00000E+00   0.00000E+00   1.00000E+00   1.00000E+00   1.00000E+00   1.00000E+00   1.00000E+00   0.00000E+00   0.00000E+00   0.00000E+00
    59     60     61   5.00000E-01   1.41372E+01   0.00000E+00   3.00000E+00   0.00000E+00   6.00000E-02   3.00000E+00   0.00000E+00   6.00000E-02   0.00000E+00   0.00000E+00             F             F   0.00000E+00   0.00000E+00   0.00000E+00   1.00000E+00   1.00000E+00   1.00000E+00   1.00000E+00   1.00000E+00   0.00000E+00   0.00000E+00   0.00000E+00   1.00000E+00   1.00000E+00   1.00000E+00   1.00000E+00   1.00000E+00   0.00000E+00   0.00000E+00   0.00000E+00
    60     61     62   5.00000E-01   1.41372E+01   0.00000E+00   3.00000E+00   0.00000E+00   6.00000E-02   3.00000E+00   0.00000E+00   6.00000E-02   0.00000E+00   0.00000E+00             F             F   0.00000E+00   0.00000E+00   0.00000E+00   1.00000E+00   1.00000E+00   1.00000E+00   1.00000E+00   1.00000E+00   0.00000E+00   0.00000E+00   0.00000E+00   1.00000E+00   1.00000E+00   1.00000E+00   1.00000E+00   1.00000E+00   0.00000E+00   0.00000E+00   0.00000E+00
    61     62      2   5.00000E-01   1.41372E+01   0.00000E+00   3.00000E+00   0.00000E+00   6.00000E-02   3.00000E+00   0.00000E+00   6.00000E-02   0.00000E+00   0.00000E+00             F             F   0.00000E+00   0.00000E+00   0.00000E+00   1.00000E+00   1.00000E+00   1.00000E+00   1.00000E+00   1.00000E+00   0.00000E+00   0.00000E+00   0.00000E+00   1.00000E+00   1.00000E+00   1.00000E+00   1.00000E+00   1.00000E+00   0.00000E+00   0.00000E+00   1.00000E+00



Requested Member Outputs


   Label         Xi          Yi          Zi      InpMbrIndx   StartXi     StartYi     StartZi      EndXi       EndYi       EndZi        Loc    
    (-)          (m)         (m)         (m)        (-)         (m)         (m)         (m)         (m)         (m)         (m)         (-)    



 Requested Joint Outputs


   Label         Xi          Yi          Zi      InpJointID
    (-)          (m)         (m)         (m)        (-)    



 Wave Kinematics


       m              k          Omega[m]       Direction    REAL(DFT{WaveElev})  IMAG(DFT{WaveElev})
      (-)           (1/m)        (rad/s)          (deg)             (m)                  (m)         
      -7259     1.60928E+01    -1.25646E+01     0.00000E+00    -0.00000E+00         -0.00000E+00
      -7258     1.60883E+01    -1.25629E+01     0.00000E+00    -0.00000E+00         -0.00000E+00
      -7257     1.60839E+01    -1.25612E+01     0.00000E+00     0.00000E+00          0.00000E+00
      -7256     1.60795E+01    -1.25594E+01     0.00000E+00     0.00000E+00         -0.00000E+00
      -7255     1.60750E+01    -1.25577E+01     0.00000E+00     0.00000E+00         -0.00000E+00
      -7254     1.60706E+01    -1.25560E+01     0.00000E+00     0.00000E+00          0.00000E+00
      -7253     1.60662E+01    -1.25543E+01     0.00000E+00    -0.00000E+00          0.00000E+00
      -7252     1.60618E+01    -1.25525E+01     0.00000E+00    -0.00000E+00         -0.00000E+00
      -7251     1.60573E+01    -1.25508E+01     0.00000E+00     0.00000E+00         -0.00000E+00
      -7250     1.60529E+01    -1.25491E+01     0.00000E+00    -0.00000E+00         -0.00000E+00
      -7249     1.60485E+01    -1.25473E+01     0.00000E+00     0.00000E+00          0.00000E+00
      -7248     1.60440E+01    -1.25456E+01     0.00000E+00    -0.00000E+00         -0.00000E+00
      -7247     1.60396E+01    -1.25439E+01     0.00000E+00     0.00000E+00          0.00000E+00
      -7246     1.60352E+01    -1.25421E+01     0.00000E+00     0.00000E+00         -0.00000E+00
      -7245     1.60308E+01    -1.25404E+01     0.00000E+00    -0.00000E+00         -0.00000E+00
      -7244     1.60263E+01    -1.25387E+01     0.00000E+00     0.00000E+00          0.00000E+00
      -7243     1.60219E+01    -1.25369E+01     0.00000E+00     0.00000E+00          0.00000E+00
      -7242     1.60175E+01    -1.25352E+01     0.00000E+00     0.00000E+00          0.00000E+00
      -7241     1.60131E+01    -1.25335E+01     0.00000E+00     0.00000E+00         -0.00000E+00
      -7240     1.60086E+01    -1.25318E+01     0.00000E+00    -0.00000E+00         -0.00000E+00
      -7239     1.60042E+01    -1.25300E+01     0.00000E+00    -0.00000E+00          0.00000E+00
      -7238     1.59998E+01    -1.25283E+01     0.00000E+00     0.00000E+00          0.00000E+00
      -7237     1.59954E+01    -1.25266E+01     0.00000E+00     0.00000E+00          0.00000E+00
      -7236     1.59910E+01    -1.25248E+01     0.00000E+00     0.00000E+00          0.00000E+00
      -7235     1.59865E+01    -1.25231E+01     0.00000E+00    -0.00000E+00         -0.00000E+00
      -7234     1.59821E+01    -1.25214E+01     0.00000E+00     0.00000E+00          0.00000E+00
      -7233     1.59777E+01    -1.25196E+01     0.00000E+00     0.00000E+00         -0.00000E+00
      -7232     1.59733E+01    -1.25179E+01     0.00000E+00    -0.00000E+00         -0.00000E+00
      -7231     1.59689E+01    -1.25162E+01     0.00000E+00     0.00000E+00         -0.00000E+00
      -7230     1.59645E+01    -1.25144E+01     0.00000E+00     0.00000E+00          0.00000E+00
      -7229     1.59600E+01    -1.25127E+01     0.00000E+00     0.00000E+00         -0.00000E+00
      -7228     1.59556E+01    -1.25110E+01     0.00000E+00     0.00000E+00          0.00000E+00
      -7227     1.59512E+01    -1.25093E+01     0.00000E+00    -0.00000E+00          0.00000E+00
      -7226     1.59468E+01    -1.25075E+01     0.00000E+00    -0.00000E+00          0.00000E+00
      -7225     1.59424E+01    -1.25058E+01     0.00000E+00    -0.00000E+00         -0.00000E+00
      -7224     1.59380E+01    -1.25041E+01     0.00000E+00    -0.00000E+00          0.00000E+00
      -7223     1.59336E+01    -1.25023E+01     0.00000E+00    -0.00000E+00          0.00000E+00
      -7222     1.59291E+01    -1.25006E+01     0.00000E+00     0.00000E+00          0.00000E+00
      -7221     1.59247E+01    -1.24989E+01     0.00000E+00    -0.00000E+00          0.00000E+00
      -7220     1.59203E+01    -1.24971E+01     0.00000E+00     0.00000E+00         -0.00000E+00
      -7219     1.59159E+01    -1.24954E+01     0.00000E+00    -0.00000E+00          0.00000E+00
      -7218     1.59115E+01    -1.24937E+01     0.00000E+00    -0.00000E+00         -0.00000E+00
      -7217     1.59071E+01    -1.24919E+01     0.00000E+00    -0.00000E+00         -0.00000E+00
      -7216     1.59027E+01    -1.24902E+01     0.00000E+00     0.00000E+00          0.00000E+00
      -7215     1.58983E+01    -1.24885E+01     0.00000E+00     0.00000E+00         -0.00000E+00
      -7214     1.58939E+01    -1.24867E+01     0.00000E+00     0.00000E+00         -0.00000E+00
      -7213     1.58895E+01    -1.24850E+01     0.00000E+00     0.00000E+00         -0.00000E+00
      -7212     1.58851E+01    -1.24833E+01     0.00000E+00    -0.00000E+00          0.00000E+00
      -7211     1.58807E+01    -1.24816E+01     0.00000E+00     0.00000E+00         -0.00000E+00
      -7210     1.58763E+01    -1.24798E+01     0.00000E+00    -0.00000E+00          0.00000E+00
      -7209     1.58718E+01    -1.24781E+01     0.00000E+00    -0.00000E+00          0.00000E+00
      -7208     1.58674E+01    -1.24764E+01     0.00000E+00    -0.00000E+00          0.00000E+00
      -7207     1.58630E+01    -1.24746E+01     0.00000E+00     0.00000E+00          0.00000E+00
      -7206     1.58586E+01    -1.24729E+01     0.00000E+00    -0.00000E+00         -0.00000E+00
      -7205     1.58542E+01    -1.24712E+01     0.00000E+00     0.00000E+00          0.00000E+00
      -7204     1.58498E+01    -1.24694E+01     0.00000E+00     0.00000E+00          0.00000E+00
      -7203     1.58454E+01    -1.24677E+01     0.00000E+00    -0.00000E+00         -0.00000E+00
      -7202     1.58410E+01    -1.24660E+01     0.00000E+00     0.00000E+00         -0.00000E+00
      -7201     1.58366E+01    -1.24642E+01     0.00000E+00    -0.00000E+00         -0.00000E+00
      -7200     1.58322E+01    -1.24625E+01     0.00000E+00     0.00000E+00         -0.00000E+00
      -7199     1.58278E+01    -1.24608E+01     0.00000E+00    -0.00000E+00         -0.00000E+00
      -7198     1.58234E+01    -1.24591E+01     0.00000E+00     0.00000E+00          0.00000E+00
      -7197     1.58191E+01    -1.24573E+01     0.00000E+00     0.00000E+00          0.00000E+00
      -7196     1.58147E+01    -1.24556E+01     0.00000E+00    -0.00000E+00         -0.00000E+00
      -7195     1.58103E+01    -1.24539E+01     0.00000E+00     0.00000E+00         -0.00000E+00
      -7194     1.58059E+01    -1.24521E+01     0.00000E+00     0.00000E+00         -0.00000E+00
      -7193     1.58015E+01    -1.24504E+01     0.00000E+00    -0.00000E+00          0.00000E+00
      -7192     1.57971E+01    -1.24487E+01     0.00000E+00     0.00000E+00         -0.00000E+00
      -7191     1.57927E+01    -1.24469E+01     0.00000E+00    -0.00000E+00         -0.00000E+00
      -7190     1.57883E+01    -1.24452E+01     0.00000E+00    -0.00000E+00          0.00000E+00
      -7189     1.57839E+01    -1.24435E+01     0.00000E+00    -0.00000E+00         -0.00000E+00
      -7188     1.57795E+01    -1.24417E+01     0.00000E+00     0.00000E+00         -0.00000E+00
      -7187     1.57751E+01    -1.24400E+01     0.00000E+00     0.00000E+00         -0.00000E+00
      -7186     1.57707E+01    -1.24383E+01     0.00000E+00     0.00000E+00         -0.00000E+00
      -7185     1.57663E+01    -1.24366E+01     0.00000E+00     0.00000E+00          0.00000E+00
      -7184     1.57620E+01    -1.24348E+01     0.00000E+00     0.00000E+00          0.00000E+00
      -7183     1.57576E+01    -1.24331E+01     0.00000E+00    -0.00000E+00         -0.00000E+00
      -7182     1.57532E+01    -1.24314E+01     0.00000E+00     0.00000E+00         -0.00000E+00
      -7181     1.57488E+01    -1.24296E+01     0.00000E+00    -0.00000E+00         -0.00000E+00
      -7180     1.57444E+01    -1.24279E+01     0.00000E+00    -0.00000E+00         -0.00000E+00
      -7179     1.57400E+01    -1.24262E+01     0.00000E+00     0.00000E+00         -0.00000E+00
      -7178     1.57356E+01    -1.24244E+01     0.00000E+00     0.00000E+00         -0.00000E+00
      -7177     1.57313E+01    -1.24227E+01     0.00000E+00     0.00000E+00          0.00000E+00
      -7176     1.57269E+01    -1.24210E+01     0.00000E+00     0.00000E+00          0.00000E+00
      -7175     1.57225E+01    -1.24192E+01     0.00000E+00    -0.00000E+00          0.00000E+00
      -7174     1.57181E+01    -1.24175E+01     0.00000E+00    -0.00000E+00          0.00000E+00
      -7173     1.57137E+01    -1.24158E+01     0.00000E+00    -0.00000E+00         -0.00000E+00
      -7172     1.57093E+01    -1.24141E+01     0.00000E+00     0.00000E+00          0.00000E+00
      -7171     1.57050E+01    -1.24123E+01     0.00000E+00    -0.00000E+00          0.00000E+00
      -7170     1.57006E+01    -1.24106E+01     0.00000E+00    -0.00000E+00          0.00000E+00
      -7169     1.56962E+01    -1.24089E+01     0.00000E+00    -0.00000E+00          0.00000E+00
      -7168     1.56918E+01    -1.24071E+01     0.00000E+00    -0.00000E+00          0.00000E+00
      -7167     1.56874E+01    -1.24054E+01     0.00000E+00     0.00000E+00          0.00000E+00
      -7166     1.56831E+01    -1.24037E+01     0.00000E+00     0.00000E+00          0.00000E+00
      -7165     1.56787E+01    -1.24019E+01     0.00000E+00    -0.00000E+00          0.00000E+00
      -7164     1.56743E+01    -1.24002E+01     0.00000E+00     0.00000E+00          0.00000E+00
      -7163     1.56699E+01    -1.23985E+01     0.00000E+00     0.00000E+00         -0.00000E+00
      -7162     1.56656E+01    -1.23967E+01     0.00000E+00     0.00000E+00         -0.00000E+00
      -7161     1.56612E+01    -1.23950E+01     0.00000E+00    -0.00000E+00         -0.00000E+00
      -7160     1.56568E+01    -1.23933E+01     0.00000E+00    -0.00000E+00         -0.00000E+00
      -7159     1.56524E+01    -1.23915E+01     0.00000E+00    -0.00000E+00          0.00000E+00
      -7158     1.56481E+01    -1.23898E+01     0.00000E+00     0.00000E+00          0.00000E+00
      -7157     1.56437E+01    -1.23881E+01     0.00000E+00    -0.00000E+00          0.00000E+00
      -7156     1.56393E+01    -1.23864E+01     0.00000E+00     0.00000E+00         -0.00000E+00
      -7155     1.56350E+01    -1.23846E+01     0.00000E+00     0.00000E+00          0.00000E+00
      -7154     1.56306E+01    -1.23829E+01     0.00000E+00     0.00000E+00         -0.00000E+00
      -7153     1.56262E+01    -1.23812E+01     0.00000E+00     0.00000E+00          0.00000E+00
      -7152     1.56219E+01    -1.23794E+01     0.00000E+00    -0.00000E+00          0.00000E+00
      -7151     1.56175E+01    -1.23777E+01     0.00000E+00    -0.00000E+00         -0.00000E+00
      -7150     1.56131E+01    -1.23760E+01     0.00000E+00    -0.00000E+00          0.00000E+00
      -7149     1.56087E+01    -1.23742E+01     0.00000E+00    -0.00000E+00         -0.00000E+00
      -7148     1.56044E+01    -1.23725E+01     0.00000E+00     0.00000E+00          0.00000E+00
      -7147     1.56000E+01    -1.23708E+01     0.00000E+00     0.00000E+00         -0.00000E+00
      -7146     1.55957E+01    -1.23690E+01     0.00000E+00    -0.00000E+00          0.00000E+00
      -7145     1.55913E+01    -1.23673E+01     0.00000E+00     0.00000E+00         -0.00000E+00
      -7144     1.55869E+01    -1.23656E+01     0.00000E+00    -0.00000E+00         -0.00000E+00
      -7143     1.55826E+01    -1.23639E+01     0.00000E+00    -0.00000E+00          0.00000E+00
      -7142     1.55782E+01    -1.23621E+01     0.00000E+00     0.00000E+00         -0.00000E+00
      -7141     1.55738E+01    -1.23604E+01     0.00000E+00     0.00000E+00         -0.00000E+00
      -7140     1.55695E+01    -1.23587E+01     0.00000E+00     0.00000E+00         -0.00000E+00
      -7139     1.55651E+01    -1.23569E+01     0.00000E+00     0.00000E+00         -0.00000E+00
      -7138     1.55608E+01    -1.23552E+01     0.00000E+00    -0.00000E+00         -0.00000E+00
      -7137     1.55564E+01    -1.23535E+01     0.00000E+00    -0.00000E+00         -0.00000E+00
      -7136     1.55520E+01    -1.23517E+01     0.00000E+00     0.00000E+00         -0.00000E+00
      -7135     1.55477E+01    -1.23500E+01     0.00000E+00     0.00000E+00          0.00000E+00
      -7134     1.55433E+01    -1.23483E+01     0.00000E+00    -0.00000E+00          0.00000E+00
      -7133     1.55390E+01    -1.23465E+01     0.00000E+00     0.00000E+00          0.00000E+00
      -7132     1.55346E+01    -1.23448E+01     0.00000E+00     0.00000E+00         -0.00000E+00
      -7131     1.55302E+01    -1.23431E+01     0.00000E+00    -0.00000E+00          0.00000E+00
      -7130     1.55259E+01    -1.23414E+01     0.00000E+00    -0.00000E+00          0.00000E+00
      -7129     1.55215E+01    -1.23396E+01     0.00000E+00    -0.00000E+00          0.00000E+00
      -7128     1.55172E+01    -1.23379E+01     0.00000E+00     0.00000E+00          0.00000E+00
      -7127     1.55128E+01    -1.23362E+01     0.00000E+00     0.00000E+00         -0.00000E+00
      -7126     1.55085E+01    -1.23344E+01     0.00000E+00    -0.00000E+00          0.00000E+00
      -7125     1.55041E+01    -1.23327E+01     0.00000E+00     0.00000E+00          0.00000E+00
      -7124     1.54998E+01    -1.23310E+01     0.00000E+00    -0.00000E+00          0.00000E+00
      -7123     1.54954E+01    -1.23292E+01     0.00000E+00    -0.00000E+00         -0.00000E+00
      -7122     1.54911E+01    -1.23275E+01     0.00000E+00     0.00000E+00          0.00000E+00
      -7121     1.54867E+01    -1.23258E+01     0.00000E+00    -0.00000E+00         -0.00000E+00
      -7120     1.54824E+01    -1.23240E+01     0.00000E+00     0.00000E+00         -0.00000E+00
      -7119     1.54780E+01    -1.23223E+01     0.00000E+00     0.00000E+00         -0.00000E+00
      -7118     1.54737E+01    -1.23206E+01     0.00000E+00    -0.00000E+00          0.00000E+00
      -7117     1.54693E+01    -1.23189E+01     0.00000E+00     0.00000E+00         -0.00000E+00
      -7116     1.54650E+01    -1.23171E+01     0.00000E+00    -0.00000E+00          0.00000E+00
      -7115     1.54606E+01    -1.23154E+01     0.00000E+00    -0.00000E+00          0.00000E+00
      -7114     1.54563E+01    -1.23137E+01     0.00000E+00     0.00000E+00         -0.00000E+00
      -7113     1.54519E+01    -1.23119E+01     0.00000E+00     0.00000E+00         -0.00000E+00
      -7112     1.54476E+01    -1.23102E+01     0.00000E+00     0.00000E+00          0.00000E+00
      -7111     1.54433E+01    -1.23085E+01     0.00000E+00    -0.00000E+00          0.00000E+00
      -7110     1.54389E+01    -1.23067E+01     0.00000E+00    -0.00000E+00          0.00000E+00
      -7109     1.54346E+01    -1.23050E+01     0.00000E+00    -0.00000E+00         -0.00000E+00
      -7108     1.54302E+01    -1.23033E+01     0.00000E+00     0.00000E+00          0.00000E+00
      -7107     1.54259E+01    -1.23015E+01     0.00000E+00    -0.00000E+00          0.00000E+00
      -7106     1.54215E+01    -1.22998E+01     0.00000E+00    -0.00000E+00         -0.00000E+00
      -7105     1.54172E+01    -1.22981E+01     0.00000E+00     0.00000E+00         -0.00000E+00
      -7104     1.54129E+01    -1.22963E+01     0.00000E+00    -0.00000E+00         -0.00000E+00
      -7103     1.54085E+01    -1.22946E+01     0.00000E+00     0.00000E+00         -0.00000E+00
      -7102     1.54042E+01    -1.22929E+01     0.00000E+00     0.00000E+00         -0.00000E+00
      -7101     1.53999E+01    -1.22912E+01     0.00000E+00    -0.00000E+00         -0.00000E+00
      -7100     1.53955E+01    -1.22894E+01     0.00000E+00    -0.00000E+00         -0.00000E+00
      -7099     1.53912E+01    -1.22877E+01     0.00000E+00     0.00000E+00          0.00000E+00
      -7098     1.53868E+01    -1.22860E+01     0.00000E+00     0.00000E+00         -0.00000E+00
      -7097     1.53825E+01    -1.22842E+01     0.00000E+00     0.00000E+00         -0.00000E+00
      -7096     1.53782E+01    -1.22825E+01     0.00000E+00     0.00000E+00         -0.00000E+00
      -7095     1.53738E+01    -1.22808E+01     0.00000E+00     0.00000E+00         -0.00000E+00
      -7094     1.53695E+01    -1.22790E+01     0.00000E+00     0.00000E+00         -0.00000E+00
      -7093     1.53652E+01    -1.22773E+01     0.00000E+00    -0.00000E+00          0.00000E+00
      -7092     1.53608E+01    -1.22756E+01     0.00000E+00    -0.00000E+00          0.00000E+00
      -7091     1.53565E+01    -1.22738E+01     0.00000E+00    -0.00000E+00          0.00000E+00
      -7090     1.53522E+01    -1.22721E+01     0.00000E+00     0.00000E+00         -0.00000E+00
      -7089     1.53478E+01    -1.22704E+01     0.00000E+00     0.00000E+00          0.00000E+00
      -7088     1.53435E+01    -1.22687E+01     0.00000E+00    -0.00000E+00          0.00000E+00
      -7087     1.53392E+01    -1.22669E+01     0.00000E+00     0.00000E+00         -0.00000E+00
      -7086     1.53349E+01    -1.22652E+01     0.00000E+00     0.00000E+00         -0.00000E+00
      -7085     1.53305E+01    -1.22635E+01     0.00000E+00     0.00000E+00         -0.00000E+00
      -7084     1.53262E+01    -1.22617E+01     0.00000E+00    -0.00000E+00          0.00000E+00
      -7083     1.53219E+01    -1.22600E+01     0.00000E+00    -0.00000E+00         -0.00000E+00
      -7082     1.53176E+01    -1.22583E+01     0.00000E+00     0.00000E+00         -0.00000E+00
      -7081     1.53132E+01    -1.22565E+01     0.00000E+00    -0.00000E+00         -0.00000E+00
      -7080     1.53089E+01    -1.22548E+01     0.00000E+00    -0.00000E+00         -0.00000E+00
      -7079     1.53046E+01    -1.22531E+01     0.00000E+00     0.00000E+00         -0.00000E+00
      -7078     1.53003E+01    -1.22513E+01     0.00000E+00    -0.00000E+00         -0.00000E+00
      -7077     1.52959E+01    -1.22496E+01     0.00000E+00    -0.00000E+00          0.00000E+00
      -7076     1.52916E+01    -1.22479E+01     0.00000E+00    -0.00000E+00          0.00000E+00
      -7075     1.52873E+01    -1.22462E+01     0.00000E+00     0.00000E+00          0.00000E+00
      -7074     1.52830E+01    -1.22444E+01     0.00000E+00    -0.00000E+00          0.00000E+00
      -7073     1.52786E+01    -1.22427E+01     0.00000E+00     0.00000E+00         -0.00000E+00
      -7072     1.52743E+01    -1.22410E+01     0.00000E+00     0.00000E+00          0.00000E+00
      -7071     1.52700E+01    -1.22392E+01     0.00000E+00    -0.00000E+00         -0.00000E+00
      -7070     1.52657E+01    -1.22375E+01     0.00000E+00     0.00000E+00         -0.00000E+00
      -7069     1.52614E+01    -1.22358E+01     0.00000E+00    -0.00000E+00         -0.00000E+00
      -7068     1.52570E+01    -1.22340E+01     0.00000E+00    -0.00000E+00         -0.00000E+00
      -7067     1.52527E+01    -1.22323E+01     0.00000E+00    -0.00000E+00          0.00000E+00
      -7066     1.52484E+01    -1.22306E+01     0.00000E+00    -0.00000E+00          0.00000E+00
      -7065     1.52441E+01    -1.22288E+01     0.00000E+00    -0.00000E+00         -0.00000E+00
      -7064     1.52398E+01    -1.22271E+01     0.00000E+00     0.00000E+00         -0.00000E+00
      -7063     1.52355E+01    -1.22254E+01     0.00000E+00     0.00000E+00         -0.00000E+00
      -7062     1.52312E+01    -1.22237E+01     0.00000E+00    -0.00000E+00         -0.00000E+00
      -7061     1.52268E+01    -1.22219E+01     0.00000E+00     0.00000E+00         -0.00000E+00
      -7060     1.52225E+01    -1.22202E+01     0.00000E+00    -0.00000E+00         -0.00000E+00
      -7059     1.52182E+01    -1.22185E+01     0.00000E+00     0.00000E+00         -0.00000E+00
      -7058     1.52139E+01    -1.22167E+01     0.00000E+00    -0.00000E+00          0.00000E+00
      -7057     1.52096E+01    -1.22150E+01     0.00000E+00    -0.00000E+00         -0.00000E+00
      -7056     1.52053E+01    -1.22133E+01     0.00000E+00     0.00000E+00         -0.00000E+00
      -7055     1.52010E+01    -1.22115E+01     0.00000E+00     0.00000E+00         -0.00000E+00
      -7054     1.51967E+01    -1.22098E+01     0.00000E+00    -0.00000E+00         -0.00000E+00
      -7053     1.51924E+01    -1.22081E+01     0.00000E+00    -0.00000E+00          0.00000E+00
      -7052     1.51881E+01    -1.22063E+01     0.00000E+00    -0.00000E+00          0.00000E+00
      -7051     1.51837E+01    -1.22046E+01     0.00000E+00     0.00000E+00         -0.00000E+00
      -7050     1.51794E+01    -1.22029E+01     0.00000E+00     0.00000E+00         -0.00000E+00
      -7049     1.51751E+01    -1.22011E+01     0.00000E+00     0.00000E+00          0.00000E+00
      -7048     1.51708E+01    -1.21994E+01     0.00000E+00    -0.00000E+00         -0.00000E+00
      -7047     1.51665E+01    -1.21977E+01     0.00000E+00     0.00000E+00         -0.00000E+00
      -7046     1.51622E+01    -1.21960E+01     0.00000E+00    -0.00000E+00         -0.00000E+00
      -7045     1.51579E+01    -1.21942E+01     0.00000E+00     0.00000E+00         -0.00000E+00
      -7044     1.51536E+01    -1.21925E+01     0.00000E+00    -0.00000E+00         -0.00000E+00
      -7043     1.51493E+01    -1.21908E+01     0.00000E+00    -0.00000E+00         -0.00000E+00
      -7042     1.51450E+01    -1.21890E+01     0.00000E+00    -0.00000E+00         -0.00000E+00
      -7041     1.51407E+01    -1.21873E+01     0.00000E+00     0.00000E+00          0.00000E+00
      -7040     1.51364E+01    -1.21856E+01     0.00000E+00     0.00000E+00          0.00000E+00
      -7039     1.51321E+01    -1.21838E+01     0.00000E+00     0.00000E+00          0.00000E+00
      -7038     1.51278E+01    -1.21821E+01     0.00000E+00     0.00000E+00         -0.00000E+00
      -7037     1.51235E+01    -1.21804E+01     0.00000E+00     0.00000E+00          0.00000E+00
      -7036     1.51192E+01    -1.21786E+01     0.00000E+00    -0.00000E+00         -0.00000E+00
      -7035     1.51149E+01    -1.21769E+01     0.00000E+00     0.00000E+00         -0.00000E+00
      -7034     1.51106E+01    -1.21752E+01     0.00000E+00    -0.00000E+00         -0.00000E+00
      -7033     1.51063E+01    -1.21735E+01     0.00000E+00     0.00000E+00         -0.00000E+00
      -7032     1.51020E+01    -1.21717E+01     0.00000E+00     0.00000E+00          0.00000E+00
      -7031     1.50977E+01    -1.21700E+01     0.00000E+00    -0.00000E+00          0.00000E+00
      -7030     1.50934E+01    -1.21683E+01     0.00000E+00     0.00000E+00         -0.00000E+00
      -7029     1.50891E+01    -1.21665E+01     0.00000E+00    -0.00000E+00         -0.00000E+00
      -7028     1.50848E+01    -1.21648E+01     0.00000E+00     0.00000E+00         -0.00000E+00
      -7027     1.50806E+01    -1.21631E+01     0.00000E+00     0.00000E+00         -0.00000E+00
      -7026     1.50763E+01    -1.21613E+01     0.00000E+00     0.00000E+00          0.00000E+00
      -7025     1.50720E+01    -1.21596E+01     0.00000E+00     0.00000E+00         -0.00000E+00
      -7024     1.50677E+01    -1.21579E+01     0.00000E+00     0.00000E+00          0.00000E+00
      -7023     1.50634E+01    -1.21561E+01     0.00000E+00     0.00000E+00         -0.00000E+00
      -7022     1.50591E+01    -1.21544E+01     0.00000E+00     0.00000E+00          0.00000E+00
      -7021     1.50548E+01    -1.21527E+01     0.00000E+00    -0.00000E+00          0.00000E+00
      -7020     1.50505E+01    -1.21510E+01     0.00000E+00    -0.00000E+00          0.00000E+00
      -7019     1.50462E+01    -1.21492E+01     0.00000E+00     0.00000E+00          0.00000E+00
      -7018     1.50420E+01    -1.21475E+01     0.00000E+00    -0.00000E+00          0.00000E+00
      -7017     1.50377E+01    -1.21458E+01     0.00000E+00     0.00000E+00          0.00000E+00
      -7016     1.50334E+01    -1.21440E+01     0.00000E+00     0.00000E+00          0.00000E+00
      -7015     1.50291E+01    -1.21423E+01     0.00000E+00    -0.00000E+00          0.00000E+00
      -7014     1.50248E+01    -1.21406E+01     0.00000E+00    -0.00000E+00          0.00000E+00
      -7013     1.50205E+01    -1.21388E+01     0.00000E+00     0.00000E+00          0.00000E+00
      -7012     1.50162E+01    -1.21371E+01     0.00000E+00     0.00000E+00         -0.00000E+00
      -7011     1.50120E+01    -1.21354E+01     0.00000E+00     0.00000E+00         -0.00000E+00
      -7010     1.50077E+01    -1.21336E+01     0.00000E+00     0.00000E+00          0.00000E+00
      -7009     1.50034E+01    -1.21319E+01     0.00000E+00     0.00000E+00          0.00000E+00
      -7008     1.49991E+01    -1.21302E+01     0.00000E+00    -0.00000E+00          0.00000E+00
      -7007     1.49948E+01    -1.21285E+01     0.00000E+00     0.00000E+00          0.00000E+00
      -7006     1.49906E+01    -1.21267E+01     0.00000E+00     0.00000E+00         -0.00000E+00
      -7005     1.49863E+01    -1.21250E+01     0.00000E+00     0.00000E+00         -0.00000E+00
      -7004     1.49820E+01    -1.21233E+01     0.00000E+00    -0.00000E+00         -0.00000E+00
      -7003     1.49777E+01    -1.21215E+01     0.00000E+00     0.00000E+00         -0.00000E+00
      -7002     1.49734E+01    -1.21198E+01     0.00000E+00    -0.00000E+00         -0.00000E+00
      -7001     1.49692E+01    -1.21181E+01     0.00000E+00     0.00000E+00         -0.00000E+00
      -7000     1.49649E+01    -1.21163E+01     0.00000E+00    -0.00000E+00          0.00000E+00
      -6999     1.49606E+01    -1.21146E+01     0.00000E+00     0.00000E+00          0.00000E+00
      -6998     1.49563E+01    -1.21129E+01     0.00000E+00    -0.00000E+00          0.00000E+00
      -6997     1.49521E+01    -1.21111E+01     0.00000E+00    -0.00000E+00         -0.00000E+00
      -6996     1.49478E+01    -1.21094E+01     0.00000E+00    -0.00000E+00         -0.00000E+00
      -6995     1.49435E+01    -1.21077E+01     0.00000E+00    -0.00000E+00         -0.00000E+00
      -6994     1.49392E+01    -1.21059E+01     0.00000E+00     0.00000E+00          0.00000E+00
      -6993     1.49350E+01    -1.21042E+01     0.00000E+00     0.00000E+00          0.00000E+00
      -6992     1.49307E+01    -1.21025E+01     0.00000E+00    -0.00000E+00          0.00000E+00
      -6991     1.49264E+01    -1.21008E+01     0.00000E+00     0.00000E+00          0.00000E+00
      -6990     1.49222E+01    -1.20990E+01     0.00000E+00     0.00000E+00         -0.00000E+00
      -6989     1.49179E+01    -1.20973E+01     0.00000E+00     0.00000E+00         -0.00000E+00
      -6988     1.49136E+01    -1.20956E+01     0.00000E+00    -0.00000E+00          0.00000E+00
      -6987     1.49094E+01    -1.20938E+01     0.00000E+00    -0.00000E+00         -0.00000E+00
      -6986     1.49051E+01    -1.20921E+01     0.00000E+00    -0.00000E+00         -0.00000E+00
      -6985     1.49008E+01    -1.20904E+01     0.00000E+00     0.00000E+00         -0.00000E+00
[...]
       7056     1.52053E+01     1.22133E+01     0.00000E+00     0.00000E+00          0.00000E+00
       7057     1.52096E+01     1.22150E+01     0.00000E+00    -0.00000E+00          0.00000E+00
       7058     1.52139E+01     1.22167E+01     0.00000E+00    -0.00000E+00         -0.00000E+00
       7059     1.52182E+01     1.22185E+01     0.00000E+00     0.00000E+00          0.00000E+00
       7060     1.52225E+01     1.22202E+01     0.00000E+00    -0.00000E+00          0.00000E+00
       7061     1.52268E+01     1.22219E+01     0.00000E+00     0.00000E+00          0.00000E+00
       7062     1.52312E+01     1.22237E+01     0.00000E+00    -0.00000E+00          0.00000E+00
       7063     1.52355E+01     1.22254E+01     0.00000E+00     0.00000E+00          0.00000E+00
       7064     1.52398E+01     1.22271E+01     0.00000E+00     0.00000E+00          0.00000E+00
       7065     1.52441E+01     1.22288E+01     0.00000E+00    -0.00000E+00          0.00000E+00
       7066     1.52484E+01     1.22306E+01     0.00000E+00    -0.00000E+00         -0.00000E+00
       7067     1.52527E+01     1.22323E+01     0.00000E+00    -0.00000E+00         -0.00000E+00
       7068     1.52570E+01     1.22340E+01     0.00000E+00    -0.00000E+00          0.00000E+00
       7069     1.52614E+01     1.22358E+01     0.00000E+00    -0.00000E+00          0.00000E+00
       7070     1.52657E+01     1.22375E+01     0.00000E+00     0.00000E+00          0.00000E+00
       7071     1.52700E+01     1.22392E+01     0.00000E+00    -0.00000E+00          0.00000E+00
       7072     1.52743E+01     1.22410E+01     0.00000E+00     0.00000E+00         -0.00000E+00
       7073     1.52786E+01     1.22427E+01     0.00000E+00     0.00000E+00          0.00000E+00
       7074     1.52830E+01     1.22444E+01     0.00000E+00    -0.00000E+00         -0.00000E+00
       7075     1.52873E+01     1.22462E+01     0.00000E+00     0.00000E+00         -0.00000E+00
       7076     1.52916E+01     1.22479E+01     0.00000E+00    -0.00000E+00         -0.00000E+00
       7077     1.52959E+01     1.22496E+01     0.00000E+00    -0.00000E+00         -0.00000E+00
       7078     1.53003E+01     1.22513E+01     0.00000E+00    -0.00000E+00          0.00000E+00
       7079     1.53046E+01     1.22531E+01     0.00000E+00     0.00000E+00          0.00000E+00
       7080     1.53089E+01     1.22548E+01     0.00000E+00    -0.00000E+00          0.00000E+00
       7081     1.53132E+01     1.22565E+01     0.00000E+00    -0.00000E+00          0.00000E+00
       7082     1.53176E+01     1.22583E+01     0.00000E+00     0.00000E+00          0.00000E+00
       7083     1.53219E+01     1.22600E+01     0.00000E+00    -0.00000E+00          0.00000E+00
       7084     1.53262E+01     1.22617E+01     0.00000E+00    -0.00000E+00         -0.00000E+00
       7085     1.53305E+01     1.22635E+01     0.00000E+00     0.00000E+00          0.00000E+00
       7086     1.53349E+01     1.22652E+01     0.00000E+00     0.00000E+00          0.00000E+00
       7087     1.53392E+01     1.22669E+01     0.00000E+00     0.00000E+00          0.00000E+00
       7088     1.53435E+01     1.22687E+01     0.00000E+00    -0.00000E+00         -0.00000E+00
       7089     1.53478E+01     1.22704E+01     0.00000E+00     0.00000E+00         -0.00000E+00
       7090     1.53522E+01     1.22721E+01     0.00000E+00     0.00000E+00          0.00000E+00
       7091     1.53565E+01     1.22738E+01     0.00000E+00    -0.00000E+00         -0.00000E+00
       7092     1.53608E+01     1.22756E+01     0.00000E+00    -0.00000E+00         -0.00000E+00
       7093     1.53652E+01     1.22773E+01     0.00000E+00    -0.00000E+00         -0.00000E+00
       7094     1.53695E+01     1.22790E+01     0.00000E+00     0.00000E+00          0.00000E+00
       7095     1.53738E+01     1.22808E+01     0.00000E+00     0.00000E+00          0.00000E+00
       7096     1.53782E+01     1.22825E+01     0.00000E+00     0.00000E+00          0.00000E+00
       7097     1.53825E+01     1.22842E+01     0.00000E+00     0.00000E+00          0.00000E+00
       7098     1.53868E+01     1.22860E+01     0.00000E+00     0.00000E+00          0.00000E+00
       7099     1.53912E+01     1.22877E+01     0.00000E+00     0.00000E+00         -0.00000E+00
       7100     1.53955E+01     1.22894E+01     0.00000E+00    -0.00000E+00          0.00000E+00
       7101     1.53999E+01     1.22912E+01     0.00000E+00    -0.00000E+00          0.00000E+00
       7102     1.54042E+01     1.22929E+01     0.00000E+00     0.00000E+00          0.00000E+00
       7103     1.54085E+01     1.22946E+01     0.00000E+00     0.00000E+00          0.00000E+00
       7104     1.54129E+01     1.22963E+01     0.00000E+00    -0.00000E+00          0.00000E+00
       7105     1.54172E+01     1.22981E+01     0.00000E+00     0.00000E+00          0.00000E+00
       7106     1.54215E+01     1.22998E+01     0.00000E+00    -0.00000E+00          0.00000E+00
       7107     1.54259E+01     1.23015E+01     0.00000E+00    -0.00000E+00         -0.00000E+00
       7108     1.54302E+01     1.23033E+01     0.00000E+00     0.00000E+00         -0.00000E+00
       7109     1.54346E+01     1.23050E+01     0.00000E+00    -0.00000E+00          0.00000E+00
       7110     1.54389E+01     1.23067E+01     0.00000E+00    -0.00000E+00         -0.00000E+00
       7111     1.54433E+01     1.23085E+01     0.00000E+00    -0.00000E+00         -0.00000E+00
       7112     1.54476E+01     1.23102E+01     0.00000E+00     0.00000E+00         -0.00000E+00
       7113     1.54519E+01     1.23119E+01     0.00000E+00     0.00000E+00          0.00000E+00
       7114     1.54563E+01     1.23137E+01     0.00000E+00     0.00000E+00          0.00000E+00
       7115     1.54606E+01     1.23154E+01     0.00000E+00    -0.00000E+00         -0.00000E+00
       7116     1.54650E+01     1.23171E+01     0.00000E+00    -0.00000E+00         -0.00000E+00
       7117     1.54693E+01     1.23189E+01     0.00000E+00     0.00000E+00          0.00000E+00
       7118     1.54737E+01     1.23206E+01     0.00000E+00    -0.00000E+00         -0.00000E+00
       7119     1.54780E+01     1.23223E+01     0.00000E+00     0.00000E+00          0.00000E+00
       7120     1.54824E+01     1.23240E+01     0.00000E+00     0.00000E+00          0.00000E+00
       7121     1.54867E+01     1.23258E+01     0.00000E+00    -0.00000E+00          0.00000E+00
       7122     1.54911E+01     1.23275E+01     0.00000E+00     0.00000E+00         -0.00000E+00
       7123     1.54954E+01     1.23292E+01     0.00000E+00    -0.00000E+00          0.00000E+00
       7124     1.54998E+01     1.23310E+01     0.00000E+00    -0.00000E+00         -0.00000E+00
       7125     1.55041E+01     1.23327E+01     0.00000E+00     0.00000E+00         -0.00000E+00
       7126     1.55085E+01     1.23344E+01     0.00000E+00    -0.00000E+00         -0.00000E+00
       7127     1.55128E+01     1.23362E+01     0.00000E+00     0.00000E+00          0.00000E+00
       7128     1.55172E+01     1.23379E+01     0.00000E+00     0.00000E+00         -0.00000E+00
       7129     1.55215E+01     1.23396E+01     0.00000E+00    -0.00000E+00         -0.00000E+00
       7130     1.55259E+01     1.23414E+01     0.00000E+00    -0.00000E+00         -0.00000E+00
       7131     1.55302E+01     1.23431E+01     0.00000E+00    -0.00000E+00         -0.00000E+00
       7132     1.55346E+01     1.23448E+01     0.00000E+00     0.00000E+00          0.00000E+00
       7133     1.55390E+01     1.23465E+01     0.00000E+00     0.00000E+00         -0.00000E+00
       7134     1.55433E+01     1.23483E+01     0.00000E+00    -0.00000E+00         -0.00000E+00
       7135     1.55477E+01     1.23500E+01     0.00000E+00     0.00000E+00         -0.00000E+00
       7136     1.55520E+01     1.23517E+01     0.00000E+00     0.00000E+00          0.00000E+00
       7137     1.55564E+01     1.23535E+01     0.00000E+00    -0.00000E+00          0.00000E+00
       7138     1.55608E+01     1.23552E+01     0.00000E+00    -0.00000E+00          0.00000E+00
       7139     1.55651E+01     1.23569E+01     0.00000E+00     0.00000E+00          0.00000E+00
       7140     1.55695E+01     1.23587E+01     0.00000E+00     0.00000E+00          0.00000E+00
       7141     1.55738E+01     1.23604E+01     0.00000E+00     0.00000E+00          0.00000E+00
       7142     1.55782E+01     1.23621E+01     0.00000E+00     0.00000E+00          0.00000E+00
       7143     1.55826E+01     1.23639E+01     0.00000E+00    -0.00000E+00         -0.00000E+00
       7144     1.55869E+01     1.23656E+01     0.00000E+00    -0.00000E+00          0.00000E+00
       7145     1.55913E+01     1.23673E+01     0.00000E+00     0.00000E+00          0.00000E+00
       7146     1.55957E+01     1.23690E+01     0.00000E+00    -0.00000E+00         -0.00000E+00
       7147     1.56000E+01     1.23708E+01     0.00000E+00     0.00000E+00          0.00000E+00
       7148     1.56044E+01     1.23725E+01     0.00000E+00     0.00000E+00         -0.00000E+00
       7149     1.56087E+01     1.23742E+01     0.00000E+00    -0.00000E+00          0.00000E+00
       7150     1.56131E+01     1.23760E+01     0.00000E+00    -0.00000E+00         -0.00000E+00
       7151     1.56175E+01     1.23777E+01     0.00000E+00    -0.00000E+00          0.00000E+00
       7152     1.56219E+01     1.23794E+01     0.00000E+00    -0.00000E+00         -0.00000E+00
       7153     1.56262E+01     1.23812E+01     0.00000E+00     0.00000E+00         -0.00000E+00
       7154     1.56306E+01     1.23829E+01     0.00000E+00     0.00000E+00          0.00000E+00
       7155     1.56350E+01     1.23846E+01     0.00000E+00     0.00000E+00         -0.00000E+00
       7156     1.56393E+01     1.23864E+01     0.00000E+00     0.00000E+00          0.00000E+00
       7157     1.56437E+01     1.23881E+01     0.00000E+00    -0.00000E+00         -0.00000E+00
       7158     1.56481E+01     1.23898E+01     0.00000E+00     0.00000E+00         -0.00000E+00
       7159     1.56524E+01     1.23915E+01     0.00000E+00    -0.00000E+00         -0.00000E+00
       7160     1.56568E+01     1.23933E+01     0.00000E+00    -0.00000E+00          0.00000E+00
       7161     1.56612E+01     1.23950E+01     0.00000E+00    -0.00000E+00          0.00000E+00
       7162     1.56656E+01     1.23967E+01     0.00000E+00     0.00000E+00          0.00000E+00
       7163     1.56699E+01     1.23985E+01     0.00000E+00     0.00000E+00          0.00000E+00
       7164     1.56743E+01     1.24002E+01     0.00000E+00     0.00000E+00         -0.00000E+00
       7165     1.56787E+01     1.24019E+01     0.00000E+00    -0.00000E+00         -0.00000E+00
       7166     1.56831E+01     1.24037E+01     0.00000E+00     0.00000E+00         -0.00000E+00
       7167     1.56874E+01     1.24054E+01     0.00000E+00     0.00000E+00         -0.00000E+00
       7168     1.56918E+01     1.24071E+01     0.00000E+00    -0.00000E+00         -0.00000E+00
       7169     1.56962E+01     1.24089E+01     0.00000E+00    -0.00000E+00         -0.00000E+00
       7170     1.57006E+01     1.24106E+01     0.00000E+00    -0.00000E+00         -0.00000E+00
       7171     1.57050E+01     1.24123E+01     0.00000E+00    -0.00000E+00         -0.00000E+00
       7172     1.57093E+01     1.24141E+01     0.00000E+00     0.00000E+00         -0.00000E+00
       7173     1.57137E+01     1.24158E+01     0.00000E+00    -0.00000E+00          0.00000E+00
       7174     1.57181E+01     1.24175E+01     0.00000E+00    -0.00000E+00         -0.00000E+00
       7175     1.57225E+01     1.24192E+01     0.00000E+00    -0.00000E+00         -0.00000E+00
       7176     1.57269E+01     1.24210E+01     0.00000E+00     0.00000E+00         -0.00000E+00
       7177     1.57313E+01     1.24227E+01     0.00000E+00     0.00000E+00         -0.00000E+00
       7178     1.57356E+01     1.24244E+01     0.00000E+00     0.00000E+00          0.00000E+00
       7179     1.57400E+01     1.24262E+01     0.00000E+00     0.00000E+00          0.00000E+00
       7180     1.57444E+01     1.24279E+01     0.00000E+00    -0.00000E+00          0.00000E+00
       7181     1.57488E+01     1.24296E+01     0.00000E+00    -0.00000E+00          0.00000E+00
       7182     1.57532E+01     1.24314E+01     0.00000E+00     0.00000E+00          0.00000E+00
       7183     1.57576E+01     1.24331E+01     0.00000E+00    -0.00000E+00          0.00000E+00
       7184     1.57620E+01     1.24348E+01     0.00000E+00     0.00000E+00         -0.00000E+00
       7185     1.57663E+01     1.24366E+01     0.00000E+00     0.00000E+00         -0.00000E+00
       7186     1.57707E+01     1.24383E+01     0.00000E+00     0.00000E+00          0.00000E+00
       7187     1.57751E+01     1.24400E+01     0.00000E+00     0.00000E+00          0.00000E+00
       7188     1.57795E+01     1.24417E+01     0.00000E+00     0.00000E+00          0.00000E+00
       7189     1.57839E+01     1.24435E+01     0.00000E+00    -0.00000E+00          0.00000E+00
       7190     1.57883E+01     1.24452E+01     0.00000E+00    -0.00000E+00         -0.00000E+00
       7191     1.57927E+01     1.24469E+01     0.00000E+00    -0.00000E+00          0.00000E+00
       7192     1.57971E+01     1.24487E+01     0.00000E+00     0.00000E+00          0.00000E+00
       7193     1.58015E+01     1.24504E+01     0.00000E+00    -0.00000E+00         -0.00000E+00
       7194     1.58059E+01     1.24521E+01     0.00000E+00     0.00000E+00          0.00000E+00
       7195     1.58103E+01     1.24539E+01     0.00000E+00     0.00000E+00          0.00000E+00
       7196     1.58147E+01     1.24556E+01     0.00000E+00    -0.00000E+00          0.00000E+00
       7197     1.58191E+01     1.24573E+01     0.00000E+00     0.00000E+00         -0.00000E+00
       7198     1.58234E+01     1.24591E+01     0.00000E+00     0.00000E+00         -0.00000E+00
       7199     1.58278E+01     1.24608E+01     0.00000E+00    -0.00000E+00          0.00000E+00
       7200     1.58322E+01     1.24625E+01     0.00000E+00     0.00000E+00          0.00000E+00
       7201     1.58366E+01     1.24642E+01     0.00000E+00    -0.00000E+00          0.00000E+00
       7202     1.58410E+01     1.24660E+01     0.00000E+00     0.00000E+00          0.00000E+00
       7203     1.58454E+01     1.24677E+01     0.00000E+00    -0.00000E+00          0.00000E+00
       7204     1.58498E+01     1.24694E+01     0.00000E+00     0.00000E+00         -0.00000E+00
       7205     1.58542E+01     1.24712E+01     0.00000E+00     0.00000E+00         -0.00000E+00
       7206     1.58586E+01     1.24729E+01     0.00000E+00    -0.00000E+00          0.00000E+00
       7207     1.58630E+01     1.24746E+01     0.00000E+00     0.00000E+00         -0.00000E+00
       7208     1.58674E+01     1.24764E+01     0.00000E+00    -0.00000E+00         -0.00000E+00
       7209     1.58718E+01     1.24781E+01     0.00000E+00    -0.00000E+00         -0.00000E+00
       7210     1.58763E+01     1.24798E+01     0.00000E+00    -0.00000E+00         -0.00000E+00
       7211     1.58807E+01     1.24816E+01     0.00000E+00     0.00000E+00          0.00000E+00
       7212     1.58851E+01     1.24833E+01     0.00000E+00    -0.00000E+00         -0.00000E+00
       7213     1.58895E+01     1.24850E+01     0.00000E+00     0.00000E+00          0.00000E+00
       7214     1.58939E+01     1.24867E+01     0.00000E+00     0.00000E+00          0.00000E+00
       7215     1.58983E+01     1.24885E+01     0.00000E+00     0.00000E+00          0.00000E+00
       7216     1.59027E+01     1.24902E+01     0.00000E+00     0.00000E+00         -0.00000E+00
       7217     1.59071E+01     1.24919E+01     0.00000E+00    -0.00000E+00          0.00000E+00
       7218     1.59115E+01     1.24937E+01     0.00000E+00    -0.00000E+00          0.00000E+00
       7219     1.59159E+01     1.24954E+01     0.00000E+00    -0.00000E+00         -0.00000E+00
       7220     1.59203E+01     1.24971E+01     0.00000E+00     0.00000E+00          0.00000E+00
       7221     1.59247E+01     1.24989E+01     0.00000E+00    -0.00000E+00         -0.00000E+00
       7222     1.59291E+01     1.25006E+01     0.00000E+00     0.00000E+00         -0.00000E+00
       7223     1.59336E+01     1.25023E+01     0.00000E+00    -0.00000E+00         -0.00000E+00
       7224     1.59380E+01     1.25041E+01     0.00000E+00    -0.00000E+00         -0.00000E+00
       7225     1.59424E+01     1.25058E+01     0.00000E+00    -0.00000E+00          0.00000E+00
       7226     1.59468E+01     1.25075E+01     0.00000E+00    -0.00000E+00         -0.00000E+00
       7227     1.59512E+01     1.25093E+01     0.00000E+00    -0.00000E+00         -0.00000E+00
       7228     1.59556E+01     1.25110E+01     0.00000E+00     0.00000E+00         -0.00000E+00
       7229     1.59600E+01     1.25127E+01     0.00000E+00     0.00000E+00          0.00000E+00
       7230     1.59645E+01     1.25144E+01     0.00000E+00     0.00000E+00         -0.00000E+00
       7231     1.59689E+01     1.25162E+01     0.00000E+00     0.00000E+00          0.00000E+00
       7232     1.59733E+01     1.25179E+01     0.00000E+00    -0.00000E+00          0.00000E+00
       7233     1.59777E+01     1.25196E+01     0.00000E+00     0.00000E+00          0.00000E+00
       7234     1.59821E+01     1.25214E+01     0.00000E+00     0.00000E+00         -0.00000E+00
       7235     1.59865E+01     1.25231E+01     0.00000E+00    -0.00000E+00          0.00000E+00
       7236     1.59910E+01     1.25248E+01     0.00000E+00     0.00000E+00         -0.00000E+00
       7237     1.59954E+01     1.25266E+01     0.00000E+00     0.00000E+00         -0.00000E+00
       7238     1.59998E+01     1.25283E+01     0.00000E+00     0.00000E+00         -0.00000E+00
       7239     1.60042E+01     1.25300E+01     0.00000E+00    -0.00000E+00         -0.00000E+00
       7240     1.60086E+01     1.25318E+01     0.00000E+00    -0.00000E+00          0.00000E+00
       7241     1.60131E+01     1.25335E+01     0.00000E+00     0.00000E+00          0.00000E+00
       7242     1.60175E+01     1.25352E+01     0.00000E+00     0.00000E+00         -0.00000E+00
       7243     1.60219E+01     1.25369E+01     0.00000E+00     0.00000E+00         -0.00000E+00
       7244     1.60263E+01     1.25387E+01     0.00000E+00     0.00000E+00         -0.00000E+00
       7245     1.60308E+01     1.25404E+01     0.00000E+00    -0.00000E+00          0.00000E+00
       7246     1.60352E+01     1.25421E+01     0.00000E+00     0.00000E+00          0.00000E+00
       7247     1.60396E+01     1.25439E+01     0.00000E+00     0.00000E+00         -0.00000E+00
       7248     1.60440E+01     1.25456E+01     0.00000E+00    -0.00000E+00          0.00000E+00
       7249     1.60485E+01     1.25473E+01     0.00000E+00     0.00000E+00         -0.00000E+00
       7250     1.60529E+01     1.25491E+01     0.00000E+00    -0.00000E+00          0.00000E+00
       7251     1.60573E+01     1.25508E+01     0.00000E+00     0.00000E+00          0.00000E+00
       7252     1.60618E+01     1.25525E+01     0.00000E+00    -0.00000E+00          0.00000E+00
       7253     1.60662E+01     1.25543E+01     0.00000E+00    -0.00000E+00         -0.00000E+00
       7254     1.60706E+01     1.25560E+01     0.00000E+00     0.00000E+00         -0.00000E+00
       7255     1.60750E+01     1.25577E+01     0.00000E+00     0.00000E+00          0.00000E+00
       7256     1.60795E+01     1.25594E+01     0.00000E+00     0.00000E+00          0.00000E+00
       7257     1.60839E+01     1.25612E+01     0.00000E+00     0.00000E+00         -0.00000E+00
       7258     1.60883E+01     1.25629E+01     0.00000E+00    -0.00000E+00          0.00000E+00
       7259     1.60928E+01     1.25646E+01     0.00000E+00    -0.00000E+00          0.00000E+00
       7260     1.60972E+01     1.25664E+01     0.00000E+00     0.00000E+00          0.00000E+00

This summary file was closed on 11-Aug-2020 at 18:02:35.

