
These predictions were generated by HydroDyn on 11-Aug-2020 at 18:02:35.

    Time            Wave1Elev            Wave2Elev            Wave3Elev            Wave4Elev            Wave5Elev            Wave6Elev            Wave7Elev            Wave8Elev            Wave9Elev
   (sec)                  (m)                  (m)                  (m)                  (m)                  (m)                  (m)                  (m)                  (m)                  (m)
    0.0000           2.7434E+00           2.0787E+00           1.1039E+00          -3.5608E-02          -1.1698E+00          -2.1295E+00          -2.7715E+00          -3.0000E+00          -2.7809E+00
    0.0000           2.7434E+00           2.0787E+00           1.1039E+00          -3.5607E-02          -1.1698E+00          -2.1295E+00          -2.7715E+00          -3.0000E+00          -2.7809E+00
    0.0125           2.7512E+00           2.0944E+00           1.1250E+00          -1.2122E-02          -1.1475E+00          -2.1116E+00          -2.7608E+00          -2.9980E+00          -2.7880E+00
    0.0250           2.7590E+00           2.1100E+00           1.1462E+00           1.1363E-02          -1.1252E+00          -2.0938E+00          -2.7501E+00          -2.9961E+00          -2.7951E+00
    0.0375           2.7668E+00           2.1256E+00           1.1673E+00           3.4849E-02          -1.1028E+00          -2.0760E+00          -2.7394E+00          -2.9941E+00          -2.8022E+00
    0.0376           2.7669E+00           2.1257E+00           1.1674E+00           3.4959E-02          -1.1027E+00          -2.0759E+00          -2.7393E+00          -2.9941E+00          -2.8022E+00
    0.0500           2.7746E+00           2.1413E+00           1.1885E+00           5.8334E-02          -1.0805E+00          -2.0581E+00          -2.7287E+00          -2.9922E+00          -2.8093E+00
    0.0625           2.7825E+00           2.1569E+00           1.2096E+00           8.1820E-02          -1.0582E+00          -2.0403E+00          -2.7180E+00          -2.9903E+00          -2.8164E+00
    0.0750           2.7903E+00           2.1726E+00           1.2307E+00           1.0531E-01          -1.0358E+00          -2.0225E+00          -2.7073E+00          -2.9883E+00          -2.8235E+00
    0.0753           2.7904E+00           2.1729E+00           1.2312E+00           1.0582E-01          -1.0354E+00          -2.0221E+00          -2.7071E+00          -2.9883E+00          -2.8236E+00
    0.0875           2.7981E+00           2.1882E+00           1.2519E+00           1.2879E-01          -1.0135E+00          -2.0046E+00          -2.6966E+00          -2.9864E+00          -2.8306E+00
    0.1000           2.8059E+00           2.2038E+00           1.2730E+00           1.5228E-01          -9.9119E-01          -1.9868E+00          -2.6860E+00          -2.9844E+00          -2.8376E+00
    0.1125           2.8137E+00           2.2195E+00           1.2942E+00           1.7576E-01          -9.6886E-01          -1.9689E+00          -2.6753E+00          -2.9825E+00          -2.8447E+00
    0.1250           2.8215E+00           2.2351E+00           1.3153E+00           1.9925E-01          -9.4653E-01          -1.9511E+00          -2.6646E+00          -2.9805E+00          -2.8518E+00
    0.1375           2.8293E+00           2.2508E+00           1.3364E+00           2.2273E-01          -9.2420E-01          -1.9333E+00          -2.6539E+00          -2.9786E+00          -2.8589E+00
    0.1500           2.8371E+00           2.2664E+00           1.3576E+00           2.4622E-01          -9.0187E-01          -1.9154E+00          -2.6432E+00          -2.9766E+00          -2.8660E+00
    0.1625           2.8449E+00           2.2820E+00           1.3787E+00           2.6970E-01          -8.7955E-01          -1.8976E+00          -2.6325E+00          -2.9747E+00          -2.8731E+00
    0.1750           2.8527E+00           2.2977E+00           1.3999E+00           2.9319E-01          -8.5722E-01          -1.8797E+00          -2.6218E+00          -2.9728E+00          -2.8802E+00
    0.1875           2.8605E+00           2.3133E+00           1.4210E+00           3.1667E-01          -8.3489E-01          -1.8619E+00          -2.6111E+00          -2.9708E+00          -2.8873E+00
    0.2000           2.8683E+00           2.3290E+00           1.4421E+00           3.4016E-01          -8.1256E-01          -1.8441E+00          -2.6004E+00          -2.9689E+00          -2.8944E+00
    0.2125           2.8761E+00           2.3446E+00           1.4633E+00           3.6364E-01          -7.9023E-01          -1.8262E+00          -2.5898E+00          -2.9669E+00          -2.9015E+00
    0.2128           2.8763E+00           2.3450E+00           1.4638E+00           3.6422E-01          -7.8969E-01          -1.8258E+00          -2.5895E+00          -2.9669E+00          -2.9016E+00
    0.2250           2.8839E+00           2.3602E+00           1.4844E+00           3.8713E-01          -7.6791E-01          -1.8084E+00          -2.5791E+00          -2.9650E+00          -2.9085E+00
    0.2375           2.8917E+00           2.3759E+00           1.5056E+00           4.1062E-01          -7.4558E-01          -1.7905E+00          -2.5684E+00          -2.9630E+00          -2.9156E+00
    0.2500           2.8995E+00           2.3915E+00           1.5267E+00           4.3410E-01          -7.2325E-01          -1.7727E+00          -2.5577E+00          -2.9611E+00          -2.9227E+00
    0.2625           2.9038E+00           2.4042E+00           1.5460E+00           4.5705E-01          -7.0003E-01          -1.7527E+00          -2.5438E+00          -2.9555E+00          -2.9262E+00
    0.2750           2.9080E+00           2.4169E+00           1.5652E+00           4.8000E-01          -6.7681E-01          -1.7327E+00          -2.5300E+00          -2.9499E+00          -2.9297E+00
    0.2875           2.9123E+00           2.4296E+00           1.5845E+00           5.0295E-01          -6.5360E-01          -1.7126E+00          -2.5162E+00          -2.9443E+00          -2.9332E+00
    0.3000           2.9165E+00           2.4423E+00           1.6037E+00           5.2591E-01          -6.3038E-01          -1.6926E+00          -2.5023E+00          -2.9387E+00          -2.9367E+00
    0.3125           2.9207E+00           2.4550E+00           1.6230E+00           5.4886E-01          -6.0716E-01          -1.6726E+00          -2.4885E+00          -2.9331E+00          -2.9402E+00
    0.3250           2.9250E+00           2.4677E+00           1.6422E+00           5.7181E-01          -5.8394E-01          -1.6526E+00          -2.4747E+00          -2.9275E+00          -2.9437E+00
    0.3375           2.9292E+00           2.4804E+00           1.6615E+00           5.9476E-01          -5.6072E-01          -1.6326E+00          -2.4608E+00          -2.9220E+00          -2.9472E+00
    0.3500           2.9334E+00           2.4931E+00           1.6808E+00           6.1771E-01          -5.3751E-01          -1.6125E+00          -2.4470E+00          -2.9164E+00          -2.9507E+00
    0.3625           2.9377E+00           2.5058E+00           1.7000E+00           6.4066E-01          -5.1429E-01          -1.5925E+00          -2.4331E+00          -2.9108E+00          -2.9542E+00
    0.3630           2.9378E+00           2.5063E+00           1.7008E+00           6.4158E-01          -5.1336E-01          -1.5917E+00          -2.4326E+00          -2.9106E+00          -2.9543E+00
    0.3750           2.9419E+00           2.5185E+00           1.7193E+00           6.6361E-01          -4.9107E-01          -1.5725E+00          -2.4193E+00          -2.9052E+00          -2.9577E+00
    0.3875           2.9461E+00           2.5312E+00           1.7385E+00           6.8656E-01          -4.6785E-01          -1.5525E+00          -2.4055E+00          -2.8996E+00          -2.9611E+00
    0.4000           2.9504E+00           2.5439E+00           1.7578E+00           7.0951E-01          -4.4463E-01          -1.5324E+00          -2.3916E+00          -2.8940E+00          -2.9646E+00
    0.4125           2.9546E+00           2.5565E+00           1.7771E+00           7.3246E-01          -4.2141E-01          -1.5124E+00          -2.3778E+00          -2.8884E+00          -2.9681E+00
    0.4250           2.9589E+00           2.5692E+00           1.7963E+00           7.5541E-01          -3.9820E-01          -1.4924E+00          -2.3640E+00          -2.8828E+00          -2.9716E+00
    0.4253           2.9590E+00           2.5695E+00           1.7968E+00           7.5594E-01          -3.9766E-01          -1.4919E+00          -2.3636E+00          -2.8827E+00          -2.9717E+00
    0.4375           2.9631E+00           2.5819E+00           1.8156E+00           7.7837E-01          -3.7498E-01          -1.4724E+00          -2.3501E+00          -2.8772E+00          -2.9751E+00
    0.4500           2.9673E+00           2.5946E+00           1.8348E+00           8.0132E-01          -3.5176E-01          -1.4524E+00          -2.3363E+00          -2.8717E+00          -2.9786E+00
    0.4625           2.9716E+00           2.6073E+00           1.8541E+00           8.2427E-01          -3.2854E-01          -1.4323E+00          -2.3224E+00          -2.8661E+00          -2.9821E+00
    0.4750           2.9758E+00           2.6200E+00           1.8734E+00           8.4722E-01          -3.0532E-01          -1.4123E+00          -2.3086E+00          -2.8605E+00          -2.9856E+00
    0.4875           2.9800E+00           2.6327E+00           1.8926E+00           8.7017E-01          -2.8210E-01          -1.3923E+00          -2.2948E+00          -2.8549E+00          -2.9891E+00
    0.4880           2.9802E+00           2.6332E+00           1.8934E+00           8.7109E-01          -2.8118E-01          -1.3915E+00          -2.2942E+00          -2.8547E+00          -2.9892E+00
    0.5000           2.9843E+00           2.6454E+00           1.9119E+00           8.9312E-01          -2.5889E-01          -1.3723E+00          -2.2809E+00          -2.8493E+00          -2.9926E+00
    0.5125           2.9848E+00           2.6549E+00           1.9288E+00           9.1497E-01          -2.3535E-01          -1.3506E+00          -2.2643E+00          -2.8402E+00          -2.9924E+00
    0.5130           2.9849E+00           2.6552E+00           1.9295E+00           9.1585E-01          -2.3441E-01          -1.3497E+00          -2.2636E+00          -2.8398E+00          -2.9924E+00
    0.5250           2.9854E+00           2.6643E+00           1.9457E+00           9.3682E-01          -2.1181E-01          -1.3288E+00          -2.2476E+00          -2.8311E+00          -2.9922E+00
    0.5250           2.9854E+00           2.6643E+00           1.9457E+00           9.3682E-01          -2.1181E-01          -1.3288E+00          -2.2476E+00          -2.8311E+00          -2.9922E+00
    0.5375           2.9860E+00           2.6737E+00           1.9626E+00           9.5868E-01          -1.8828E-01          -1.3071E+00          -2.2310E+00          -2.8220E+00          -2.9920E+00
    0.5375           2.9860E+00           2.6737E+00           1.9626E+00           9.5868E-01          -1.8828E-01          -1.3071E+00          -2.2310E+00          -2.8220E+00          -2.9920E+00
    0.5500           2.9865E+00           2.6832E+00           1.9795E+00           9.8053E-01          -1.6474E-01          -1.2854E+00          -2.2143E+00          -2.8129E+00          -2.9918E+00
    0.5500           2.9865E+00           2.6832E+00           1.9795E+00           9.8053E-01          -1.6474E-01          -1.2854E+00          -2.2143E+00          -2.8129E+00          -2.9918E+00
    0.5625           2.9871E+00           2.6926E+00           1.9964E+00           1.0024E+00          -1.4120E-01          -1.2637E+00          -2.1977E+00          -2.8038E+00          -2.9916E+00
    0.5625           2.9871E+00           2.6926E+00           1.9964E+00           1.0024E+00          -1.4120E-01          -1.2637E+00          -2.1977E+00          -2.8038E+00          -2.9916E+00
    0.5750           2.9876E+00           2.7020E+00           2.0133E+00           1.0242E+00          -1.1766E-01          -1.2420E+00          -2.1810E+00          -2.7947E+00          -2.9914E+00
    0.5750           2.9876E+00           2.7020E+00           2.0133E+00           1.0242E+00          -1.1766E-01          -1.2420E+00          -2.1810E+00          -2.7947E+00          -2.9914E+00
    0.5875           2.9882E+00           2.7115E+00           2.0302E+00           1.0461E+00          -9.4127E-02          -1.2203E+00          -2.1644E+00          -2.7856E+00          -2.9912E+00
    0.5875           2.9882E+00           2.7115E+00           2.0302E+00           1.0461E+00          -9.4127E-02          -1.2203E+00          -2.1644E+00          -2.7856E+00          -2.9912E+00
    0.6000           2.9888E+00           2.7209E+00           2.0471E+00           1.0679E+00          -7.0590E-02          -1.1986E+00          -2.1478E+00          -2.7765E+00          -2.9910E+00
    0.6000           2.9888E+00           2.7209E+00           2.0471E+00           1.0679E+00          -7.0590E-02          -1.1986E+00          -2.1478E+00          -2.7765E+00          -2.9910E+00
    0.6125           2.9893E+00           2.7304E+00           2.0640E+00           1.0898E+00          -4.7053E-02          -1.1769E+00          -2.1311E+00          -2.7674E+00          -2.9908E+00
    0.6125           2.9893E+00           2.7304E+00           2.0640E+00           1.0898E+00          -4.7053E-02          -1.1769E+00          -2.1311E+00          -2.7674E+00          -2.9908E+00
    0.6250           2.9899E+00           2.7398E+00           2.0809E+00           1.1116E+00          -2.3516E-02          -1.1552E+00          -2.1145E+00          -2.7583E+00          -2.9907E+00
    0.6250           2.9899E+00           2.7398E+00           2.0809E+00           1.1116E+00          -2.3516E-02          -1.1552E+00          -2.1145E+00          -2.7583E+00          -2.9907E+00
    0.6375           2.9905E+00           2.7492E+00           2.0978E+00           1.1335E+00           2.0936E-05          -1.1334E+00          -2.0978E+00          -2.7492E+00          -2.9905E+00
    0.6375           2.9905E+00           2.7492E+00           2.0978E+00           1.1335E+00           2.0936E-05          -1.1334E+00          -2.0978E+00          -2.7492E+00          -2.9905E+00
    0.6500           2.9910E+00           2.7587E+00           2.1148E+00           1.1553E+00           2.3558E-02          -1.1117E+00          -2.0812E+00          -2.7401E+00          -2.9903E+00
    0.6500           2.9910E+00           2.7587E+00           2.1148E+00           1.1553E+00           2.3558E-02          -1.1117E+00          -2.0812E+00          -2.7401E+00          -2.9903E+00
    0.6625           2.9916E+00           2.7681E+00           2.1317E+00           1.1772E+00           4.7095E-02          -1.0900E+00          -2.0645E+00          -2.7310E+00          -2.9901E+00
    0.6625           2.9916E+00           2.7681E+00           2.1317E+00           1.1772E+00           4.7095E-02          -1.0900E+00          -2.0645E+00          -2.7310E+00          -2.9901E+00
    0.6750           2.9921E+00           2.7775E+00           2.1486E+00           1.1990E+00           7.0632E-02          -1.0683E+00          -2.0479E+00          -2.7219E+00          -2.9899E+00
    0.6750           2.9921E+00           2.7775E+00           2.1486E+00           1.1990E+00           7.0632E-02          -1.0683E+00          -2.0479E+00          -2.7219E+00          -2.9899E+00
    0.6875           2.9927E+00           2.7870E+00           2.1655E+00           1.2209E+00           9.4169E-02          -1.0466E+00          -2.0312E+00          -2.7128E+00          -2.9897E+00
    0.6875           2.9927E+00           2.7870E+00           2.1655E+00           1.2209E+00           9.4169E-02          -1.0466E+00          -2.0312E+00          -2.7128E+00          -2.9897E+00
    0.7000           2.9933E+00           2.7964E+00           2.1824E+00           1.2427E+00           1.1771E-01          -1.0249E+00          -2.0146E+00          -2.7037E+00          -2.9895E+00
    0.7000           2.9933E+00           2.7964E+00           2.1824E+00           1.2427E+00           1.1771E-01          -1.0249E+00          -2.0146E+00          -2.7037E+00          -2.9895E+00
    0.7125           2.9938E+00           2.8059E+00           2.1993E+00           1.2646E+00           1.4124E-01          -1.0032E+00          -1.9979E+00          -2.6946E+00          -2.9893E+00
    0.7125           2.9938E+00           2.8059E+00           2.1993E+00           1.2646E+00           1.4124E-01          -1.0032E+00          -1.9979E+00          -2.6946E+00          -2.9893E+00
    0.7250           2.9944E+00           2.8153E+00           2.2162E+00           1.2864E+00           1.6478E-01          -9.8147E-01          -1.9813E+00          -2.6855E+00          -2.9891E+00
    0.7250           2.9944E+00           2.8153E+00           2.2162E+00           1.2864E+00           1.6478E-01          -9.8147E-01          -1.9813E+00          -2.6855E+00          -2.9891E+00

This output file was closed on 11-Aug-2020 at 18:03:47.

